
     RDKit          2D

 20 22  0  0  1  0  0  0  0  0999 V2000
    1.9413   -0.8879    0.0000 C   0  0  0  0  0  0  0  0  0  0  0  0
    0.7500   -1.0323    0.0000 C   0  0  0  0  0  0  0  0  0  0  0  0
    0.1233   -2.3813    0.0000 C   0  0  0  0  0  0  0  0  0  0  0  0
   -1.3692   -2.5388    0.0000 N   0  0  0  0  0  0  0  0  0  0  0  0
   -2.1139   -3.8253    0.0000 C   0  0  0  0  0  0  0  0  0  0  0  0
   -3.5769   -3.4942    0.0000 C   0  0  0  0  0  0  0  0  0  0  0  0
   -3.7141   -2.0005    0.0000 N   0  0  0  0  0  0  0  0  0  0  0  0
   -2.3359   -1.4084    0.0000 N   0  0  0  0  0  0  0  0  0  0  0  0
    1.2135    0.3943    0.0000 C   0  0  0  0  0  0  0  0  0  0  0  0
    0.0000    1.2760    0.0000 N   0  0  0  0  0  0  0  0  0  0  0  0
   -1.2135    0.3943    0.0000 C   0  0  0  0  0  0  0  0  0  0  0  0
   -2.0931    1.6049    0.0000 C   0  0  0  0  0  0  0  0  0  0  0  0
   -0.8796    2.4866    0.0000 C   0  0  0  0  0  0  0  0  0  0  0  0
   -0.6918    3.6718    0.0000 O   0  0  0  0  0  0  0  0  0  0  0  0
   -0.7500   -1.0323    0.0000 S   0  0  0  0  0  0  0  0  0  0  0  0
   -0.2455   -2.1211    0.0000 O   0  0  0  0  0  0  0  0  0  0  0  0
   -1.9414   -0.8892    0.0000 O   0  0  0  0  0  0  0  0  0  0  0  0
    2.6394    0.8543    0.0000 C   0  0  0  0  0  0  0  0  0  0  0  0
    3.5300    0.0501    0.0000 O   0  0  0  0  0  0  0  0  0  0  0  0
    2.8910    2.0277    0.0000 O   0  0  0  0  0  0  0  0  0  0  0  0
  2  1  1  1
  2  3  1  0
  3  4  1  0
  4  5  1  0
  5  6  2  0
  6  7  1  0
  7  8  2  0
  8  4  1  0
  2  9  1  0
  9 10  1  0
 10 11  1  0
 11 12  1  6
 12 13  1  0
 13 10  1  0
 13 14  2  0
 11 15  1  0
 15  2  1  0
 15 16  2  0
 15 17  2  0
  9 18  1  1
 18 19  2  0
 18 20  1  0
M  END

> <chembl_id>
CHEMBL404

> <chembl_pref_name>
TAZOBACTAM

$$$$

     RDKit          2D

 35 38  0  0  1  0  0  0  0  0999 V2000
    1.7667   -4.7125    0.0000 N   0  0  0  0  0  0  0  0  0  0  0  0
    2.4417   -4.9292    0.0000 C   0  0  0  0  0  0  0  0  0  0  0  0
    1.0542   -4.7125    0.0000 C   0  0  0  0  0  0  0  0  0  0  0  0
    2.8583   -4.3542    0.0000 C   0  0  0  0  0  0  0  0  0  0  0  0
    1.7625   -4.0042    0.0000 C   0  0  0  0  0  0  0  0  0  0  0  0
    1.0542   -4.0042    0.0000 C   0  0  0  0  0  0  0  0  0  0  0  0
    2.4375   -3.7833    0.0000 C   0  0  0  0  0  0  0  0  0  0  0  0
    2.4375   -5.6375    0.0000 C   0  0  0  0  0  0  0  0  0  0  0  0
    5.4375   -2.6792    0.0000 C   0  0  0  0  0  0  0  0  0  0  0  0
    3.5667   -4.3500    0.0000 S   0  0  0  0  0  0  0  0  0  0  0  0
    4.2417   -2.6333    0.0000 N   0  0  0  0  0  0  0  0  0  0  0  0
    4.8250   -3.0375    0.0000 C   0  0  0  0  0  0  0  0  0  0  0  0
    6.0500   -3.0250    0.0000 N   0  0  0  0  0  0  0  0  0  0  0  0
    8.5042   -3.0083    0.0000 C   0  0  0  0  0  0  0  0  0  0  0  0
    0.5542   -5.2167    0.0000 O   0  0  0  0  0  0  0  0  0  0  0  0
    7.8875   -2.6583    0.0000 C   0  0  0  0  0  0  0  0  0  0  0  0
    4.6208   -3.7167    0.0000 C   0  0  0  0  0  0  0  0  0  0  0  0
    3.9167   -3.7333    0.0000 C   0  0  0  0  0  0  0  0  0  0  0  0
    0.4375   -3.6500    0.0000 C   0  0  0  0  0  0  0  0  0  0  0  0
    3.0458   -5.9958    0.0000 O   0  0  0  0  0  0  0  0  0  0  0  0
    6.6625   -2.6667    0.0000 C   0  0  0  0  0  0  0  0  0  0  0  0
    7.2750   -3.0167    0.0000 C   0  0  0  0  0  0  0  0  0  0  0  0
    5.4292   -1.9708    0.0000 O   0  0  0  0  0  0  0  0  0  0  0  0
    1.8167   -5.9833    0.0000 O   0  0  0  0  0  0  0  0  0  0  0  0
    8.5083   -3.7167    0.0000 O   0  0  0  0  0  0  0  0  0  0  0  0
    3.6792   -3.0625    0.0000 C   0  0  0  0  0  0  0  0  0  0  0  0
    9.1125   -2.6500    0.0000 O   0  0  0  0  0  0  0  0  0  0  0  0
    2.6542   -3.1083    0.0000 C   0  0  0  0  0  0  0  0  0  0  0  0
    0.4333   -2.9417    0.0000 O   0  0  0  0  0  0  0  0  0  0  0  0
    7.8792   -1.9500    0.0000 C   0  0  0  0  0  0  0  0  0  0  0  0
    7.2583   -1.6000    0.0000 C   0  0  0  0  0  0  0  0  0  0  0  0
    6.6542   -1.9625    0.0000 C   0  0  0  0  0  0  0  0  0  0  0  0
   -0.1792   -4.0042    0.0000 C   0  0  0  0  0  0  0  0  0  0  0  0
    1.7542   -3.2917    0.0000 H   0  0  0  0  0  0  0  0  0  0  0  0
    1.0500   -3.2917    0.0000 H   0  0  0  0  0  0  0  0  0  0  0  0
  2  1  1  0
  3  1  1  0
  4  2  2  0
  5  1  1  0
  6  3  1  0
  7  5  1  0
  8  2  1  0
 12  9  1  6
 10  4  1  0
 11 26  1  0
 12 17  1  0
 13  9  1  0
 14 16  1  0
 15  3  2  0
 16 22  1  0
 17 18  1  0
 18 10  1  6
 19  6  1  0
 20  8  1  0
 21 13  1  0
 22 21  2  0
 23  9  2  0
 24  8  2  0
 25 14  2  0
 26 18  1  0
 27 14  1  0
  7 28  1  1
 19 29  1  1
 30 31  1  0
 31 32  2  0
 32 21  1  0
 33 19  1  0
  5 34  1  6
  6 35  1  1
  6  5  1  0
  7  4  1  0
 11 12  1  0
 30 16  2  0
M  END

> <chembl_id>
CHEMBL1359

> <chembl_pref_name>
ERTAPENEM

$$$$

     RDKit          2D

 30 33  0  0  0  0  0  0  0  0999 V2000
    2.1500   -8.1292    0.0000 N   0  0  0  0  0  0  0  0  0  0  0  0
    2.7667   -7.0792    0.0000 C   0  0  0  0  0  0  0  0  0  0  0  0
    1.5292   -7.7792    0.0000 C   0  0  0  0  0  0  0  0  0  0  0  0
    1.5292   -7.0792    0.0000 C   0  0  0  0  0  0  0  0  0  0  0  0
    2.7667   -7.7792    0.0000 C   0  0  0  0  0  0  0  0  0  0  0  0
    2.1500   -6.7417    0.0000 C   0  0  0  0  0  0  0  0  0  0  0  0
   -0.3083   -8.1292    0.0000 N   0  0  0  0  0  0  0  0  0  0  0  0
    2.1500   -8.8500    0.0000 C   0  0  0  0  0  0  0  0  0  0  0  0
    0.3125   -7.7792    0.0000 C   0  0  0  0  0  0  0  0  0  0  0  0
    0.9167   -8.1292    0.0000 C   0  0  0  0  0  0  0  0  0  0  0  0
    0.9167   -6.7250    0.0000 C   0  0  0  0  0  0  0  0  0  0  0  0
    3.3875   -6.7417    0.0000 C   0  0  0  0  0  0  0  0  0  0  0  0
    0.3125   -7.0750    0.0000 C   0  0  0  0  0  0  0  0  0  0  0  0
    2.7667   -9.2375    0.0000 C   0  0  0  0  0  0  0  0  0  0  0  0
    2.7667   -9.9542    0.0000 C   0  0  0  0  0  0  0  0  0  0  0  0
    1.5292   -9.2375    0.0000 C   0  0  0  0  0  0  0  0  0  0  0  0
   -0.9333   -7.7792    0.0000 C   0  0  0  0  0  0  0  0  0  0  0  0
    2.1500   -6.0250    0.0000 O   0  0  0  0  0  0  0  0  0  0  0  0
   -1.5500   -8.8417    0.0000 N   0  0  0  0  0  0  0  0  0  0  0  0
    3.3875   -6.0417    0.0000 O   0  0  0  0  0  0  0  0  0  0  0  0
    2.1667  -10.3042    0.0000 C   0  0  0  0  0  0  0  0  0  0  0  0
   -0.3083   -6.7250    0.0000 F   0  0  0  0  0  0  0  0  0  0  0  0
    3.3792   -8.8667    0.0000 F   0  0  0  0  0  0  0  0  0  0  0  0
   -1.5500   -8.1292    0.0000 C   0  0  0  0  0  0  0  0  0  0  0  0
    4.0250   -7.0792    0.0000 O   0  0  0  0  0  0  0  0  0  0  0  0
   -0.3083   -8.8417    0.0000 C   0  0  0  0  0  0  0  0  0  0  0  0
    1.5292   -9.9542    0.0000 C   0  0  0  0  0  0  0  0  0  0  0  0
   -0.9333   -9.2042    0.0000 C   0  0  0  0  0  0  0  0  0  0  0  0
    2.1667  -11.0042    0.0000 F   0  0  0  0  0  0  0  0  0  0  0  0
   -2.1583   -7.7792    0.0000 C   0  0  0  0  0  0  0  0  0  0  0  0
  2  5  2  0
  3  1  1  0
  4  3  2  0
  5  1  1  0
  6  2  1  0
  7  9  1  0
  8  1  1  0
  9 10  2  0
 10  3  1  0
 11  4  1  0
 12  2  1  0
 13  9  1  0
 14  8  2  0
 15 14  1  0
 16  8  1  0
 17  7  1  0
 18  6  2  0
 19 28  1  0
 20 12  2  0
 21 27  1  0
 22 13  1  0
 23 14  1  0
 24 17  1  0
 25 12  1  0
 26  7  1  0
 27 16  2  0
 28 26  1  0
 29 21  1  0
 30 24  1  0
  6  4  1  0
 21 15  2  0
 13 11  2  0
 19 24  1  0
M  END

> <chembl_id>
CHEMBL277100

> <chembl_pref_name>
TEMAFLOXACIN

$$$$

     RDKit          2D

 31 33  0  0  0  0  0  0  0  0999 V2000
   11.6664   -1.7530    0.0000 N   0  0  0  0  0  0  0  0  0  0  0  0
   12.3744   -2.1792    0.0000 C   0  0  0  0  0  0  0  0  0  0  0  0
   13.0973   -1.7862    0.0000 C   0  0  0  0  0  0  0  0  0  0  0  0
   13.1144   -0.9588    0.0000 C   0  0  0  0  0  0  0  0  0  0  0  0
   12.4115   -0.5297    0.0000 S   0  0  0  0  0  0  0  0  0  0  0  0
   11.6875   -0.9268    0.0000 C   0  0  0  0  0  0  0  0  0  0  0  0
   10.8642   -0.9108    0.0000 C   0  0  0  0  0  0  0  0  0  0  0  0
   10.8442   -1.7330    0.0000 C   0  0  0  0  0  0  0  0  0  0  0  0
   12.3573   -3.0066    0.0000 C   0  0  0  0  0  0  0  0  0  0  0  0
   13.0614   -3.4317    0.0000 O   0  0  0  0  0  0  0  0  0  0  0  0
   11.6333   -3.4037    0.0000 O   0  0  0  0  0  0  0  0  0  0  0  0
   10.2478   -2.3048    0.0000 O   0  0  0  0  0  0  0  0  0  0  0  0
   10.2919   -0.3145    0.0000 N   0  0  0  0  0  0  0  0  0  0  0  0
    9.4657   -0.3105    0.0000 C   0  0  0  0  0  0  0  0  0  0  0  0
    9.0549    0.4063    0.0000 C   0  0  0  0  0  0  0  0  0  0  0  0
    8.2323    0.4083    0.0000 C   0  0  0  0  0  0  0  0  0  0  0  0
    7.8169   -0.3045    0.0000 C   0  0  0  0  0  0  0  0  0  0  0  0
    6.9907   -0.3005    0.0000 C   0  0  0  0  0  0  0  0  0  0  0  0
    9.0503   -1.0233    0.0000 O   0  0  0  0  0  0  0  0  0  0  0  0
   10.4658    2.0082    0.0000 S   0  0  0  0  0  0  0  0  0  0  0  0
    9.7530    2.4236    0.0000 C   0  0  0  0  0  0  0  0  0  0  0  0
    9.1394    1.8730    0.0000 N   0  0  0  0  0  0  0  0  0  0  0  0
    9.4703    1.1191    0.0000 C   0  0  0  0  0  0  0  0  0  0  0  0
   10.2929    1.2008    0.0000 C   0  0  0  0  0  0  0  0  0  0  0  0
    9.6728    3.2405    0.0000 N   0  0  0  0  0  0  0  0  0  0  0  0
   13.8053   -2.2125    0.0000 C   0  0  0  0  0  0  0  0  0  0  0  0
   14.5253   -1.8142    0.0000 O   0  0  0  0  0  0  0  0  0  0  0  0
   15.2322   -2.2445    0.0000 C   0  0  0  0  0  0  0  0  0  0  0  0
   15.9562   -1.8474    0.0000 O   0  0  0  0  0  0  0  0  0  0  0  0
   15.2123   -3.0667    0.0000 N   0  0  0  0  0  0  0  0  0  0  0  0
   11.4907   -0.1280    0.0000 H   0  0  0  0  0  0  0  0  0  0  0  0
  1  2  1  0
  2  3  2  0
  3  4  1  0
  4  5  1  0
  5  6  1  0
  6  7  1  0
  7  8  1  0
  1  8  1  0
  1  6  1  0
  9 10  2  0
  9 11  1  0
  2  9  1  0
  8 12  2  0
 14 15  1  0
 15 16  2  0
 16 17  1  0
 17 18  1  0
 14 19  2  0
 20 21  1  0
 21 22  2  0
 22 23  1  0
 23 24  2  0
 20 24  1  0
 21 25  1  0
 15 23  1  0
 13 14  1  0
  7 13  1  1
 28 29  2  0
 28 30  1  0
 27 28  1  0
 26 27  1  0
  3 26  1  0
  6 31  1  6
M  END

> <chembl_id>
CHEMBL582912

> <chembl_pref_name>
CEFCAPENE

$$$$

     RDKit          2D

 30 33  0  0  0  0  0  0  0  0999 V2000
    3.1167   -5.8792    0.0000 N   0  0  0  0  0  0  0  0  0  0  0  0
    2.4042   -5.8792    0.0000 C   0  0  0  0  0  0  0  0  0  0  0  0
    3.1167   -5.1667    0.0000 C   0  0  0  0  0  0  0  0  0  0  0  0
    2.4042   -5.1667    0.0000 C   0  0  0  0  0  0  0  0  0  0  0  0
    3.7167   -6.2417    0.0000 C   0  0  0  0  0  0  0  0  0  0  0  0
    6.7417   -5.8167    0.0000 S   0  0  0  0  0  0  0  0  0  0  0  0
   -1.2000   -5.2167    0.0000 N   0  0  0  0  0  0  0  0  0  0  0  0
    3.7167   -4.8167    0.0000 S   0  0  0  0  0  0  0  0  0  0  0  0
   -0.6208   -4.7917    0.0000 N   0  0  0  0  0  0  0  0  0  0  0  0
   -0.0375   -5.2042    0.0000 N   0  0  0  0  0  0  0  0  0  0  0  0
    4.3417   -5.8792    0.0000 C   0  0  0  0  0  0  0  0  0  0  0  0
    6.1667   -6.2417    0.0000 C   0  0  0  0  0  0  0  0  0  0  0  0
   -0.9625   -5.8875    0.0000 N   0  0  0  0  0  0  0  0  0  0  0  0
    6.3750   -6.9125    0.0000 N   0  0  0  0  0  0  0  0  0  0  0  0
    7.0917   -6.9167    0.0000 N   0  0  0  0  0  0  0  0  0  0  0  0
    1.7792   -4.8167    0.0000 N   0  0  0  0  0  0  0  0  0  0  0  0
    3.7167   -6.9417    0.0000 C   0  0  0  0  0  0  0  0  0  0  0  0
    7.3125   -6.2417    0.0000 C   0  0  0  0  0  0  0  0  0  0  0  0
   -0.2625   -5.8875    0.0000 C   0  0  0  0  0  0  0  0  0  0  0  0
    1.1917   -5.1792    0.0000 C   0  0  0  0  0  0  0  0  0  0  0  0
    0.5667   -4.8500    0.0000 C   0  0  0  0  0  0  0  0  0  0  0  0
    4.3417   -5.1667    0.0000 C   0  0  0  0  0  0  0  0  0  0  0  0
    1.9000   -6.3792    0.0000 O   0  0  0  0  0  0  0  0  0  0  0  0
    5.5542   -5.8792    0.0000 S   0  0  0  0  0  0  0  0  0  0  0  0
    4.9417   -6.2417    0.0000 C   0  0  0  0  0  0  0  0  0  0  0  0
    4.3167   -7.3000    0.0000 O   0  0  0  0  0  0  0  0  0  0  0  0
    3.0875   -7.3000    0.0000 O   0  0  0  0  0  0  0  0  0  0  0  0
    1.2042   -5.8875    0.0000 O   0  0  0  0  0  0  0  0  0  0  0  0
    7.9917   -6.0167    0.0000 C   0  0  0  0  0  0  0  0  0  0  0  0
    3.1125   -4.4542    0.0000 H   0  0  0  0  0  0  0  0  0  0  0  0
  2  1  1  0
  3  1  1  0
  4  3  1  0
  5  1  1  0
  6 12  1  0
  7  9  2  0
  8  3  1  0
  9 10  1  0
 10 21  1  0
 11  5  2  0
 12 24  1  0
 13 19  2  0
 14 12  2  0
 15 14  1  0
  4 16  1  1
 17  5  1  0
 18  6  1  0
 19 10  1  0
 20 16  1  0
 21 20  1  0
 22 11  1  0
 23  2  2  0
 24 25  1  0
 25 11  1  0
 26 17  1  0
 27 17  2  0
 28 20  2  0
 29 18  1  0
  3 30  1  6
  4  2  1  0
 22  8  1  0
 15 18  2  0
  7 13  1  0
M  END

> <chembl_id>
CHEMBL1435

> <chembl_pref_name>
CEFAZOLIN

$$$$

     RDKit          2D

101104  0  0  0  0  0  0  0  0999 V2000
   13.9175  -11.1140    0.0000 N   0  0  0  0  0  0  0  0  0  0  0  0
    0.4063  -11.6188    0.0000 N   0  0  0  0  0  0  0  0  0  0  0  0
   14.5824  -11.6043    0.0000 C   0  0  0  0  0  0  0  0  0  0  0  0
   -1.0205  -11.6188    0.0000 C   0  0  0  0  0  0  0  0  0  0  0  0
   -1.0205  -12.4438    0.0000 N   0  0  0  0  0  0  0  0  0  0  0  0
    0.4063  -14.8947    0.0000 N   0  0  0  0  0  0  0  0  0  0  0  0
    2.5417  -15.2975    0.0000 N   0  0  0  0  0  0  0  0  0  0  0  0
   -1.0205  -14.0794    0.0000 N   0  0  0  0  0  0  0  0  0  0  0  0
   13.2478  -11.6043    0.0000 C   0  0  0  0  0  0  0  0  0  0  0  0
    3.2454  -11.6043    0.0000 N   0  0  0  0  0  0  0  0  0  0  0  0
    1.1148  -11.2063    0.0000 C   0  0  0  0  0  0  0  0  0  0  0  0
    1.8282  -14.8898    0.0000 C   0  0  0  0  0  0  0  0  0  0  0  0
   -0.3071  -15.3024    0.0000 C   0  0  0  0  0  0  0  0  0  0  0  0
   -1.7339  -13.6717    0.0000 C   0  0  0  0  0  0  0  0  0  0  0  0
    6.0991  -11.5994    0.0000 C   0  0  0  0  0  0  0  0  0  0  0  0
    3.9588  -11.1966    0.0000 C   0  0  0  0  0  0  0  0  0  0  0  0
    7.5259  -11.5994    0.0000 N   0  0  0  0  0  0  0  0  0  0  0  0
   12.5344  -11.1868    0.0000 C   0  0  0  0  0  0  0  0  0  0  0  0
   -0.3071  -11.2112    0.0000 C   0  0  0  0  0  0  0  0  0  0  0  0
    1.1197  -15.3024    0.0000 C   0  0  0  0  0  0  0  0  0  0  0  0
    3.2454  -14.8802    0.0000 C   0  0  0  0  0  0  0  0  0  0  0  0
   -1.0205  -14.8947    0.0000 C   0  0  0  0  0  0  0  0  0  0  0  0
    8.2441  -11.1868    0.0000 C   0  0  0  0  0  0  0  0  0  0  0  0
   10.3892  -11.5994    0.0000 C   0  0  0  0  0  0  0  0  0  0  0  0
   14.3300  -12.3856    0.0000 S   0  0  0  0  0  0  0  0  0  0  0  0
   -1.7339  -12.8418    0.0000 C   0  0  0  0  0  0  0  0  0  0  0  0
    5.3857  -11.1868    0.0000 N   0  0  0  0  0  0  0  0  0  0  0  0
    3.9588  -15.2878    0.0000 C   0  0  0  0  0  0  0  0  0  0  0  0
   11.8210  -11.5994    0.0000 N   0  0  0  0  0  0  0  0  0  0  0  0
    6.8173  -11.1868    0.0000 C   0  0  0  0  0  0  0  0  0  0  0  0
    9.6758  -11.1868    0.0000 N   0  0  0  0  0  0  0  0  0  0  0  0
    1.1197  -16.1274    0.0000 C   0  0  0  0  0  0  0  0  0  0  0  0
    3.2454  -14.0599    0.0000 C   0  0  0  0  0  0  0  0  0  0  0  0
   11.1075  -11.1868    0.0000 C   0  0  0  0  0  0  0  0  0  0  0  0
   -2.1416  -17.4086    0.0000 N   0  0  0  0  0  0  0  0  0  0  0  0
    2.5320  -11.1966    0.0000 C   0  0  0  0  0  0  0  0  0  0  0  0
    4.6722  -11.6043    0.0000 C   0  0  0  0  0  0  0  0  0  0  0  0
   -1.7339  -15.3121    0.0000 C   0  0  0  0  0  0  0  0  0  0  0  0
   -1.7292  -16.1371    0.0000 C   0  0  0  0  0  0  0  0  0  0  0  0
    8.9624  -11.5994    0.0000 C   0  0  0  0  0  0  0  0  0  0  0  0
    2.8232  -13.3369    0.0000 C   0  0  0  0  0  0  0  0  0  0  0  0
    1.8379  -16.5351    0.0000 C   0  0  0  0  0  0  0  0  0  0  0  0
   -1.0642  -16.6224    0.0000 N   0  0  0  0  0  0  0  0  0  0  0  0
   15.2958  -11.1821    0.0000 C   0  0  0  0  0  0  0  0  0  0  0  0
   -1.3166  -17.4086    0.0000 C   0  0  0  0  0  0  0  0  0  0  0  0
    4.6722  -14.8802    0.0000 N   0  0  0  0  0  0  0  0  0  0  0  0
   13.5050  -12.3856    0.0000 C   0  0  0  0  0  0  0  0  0  0  0  0
    8.2441  -13.6620    0.0000 C   0  0  0  0  0  0  0  0  0  0  0  0
   -2.3989  -16.6273    0.0000 C   0  0  0  0  0  0  0  0  0  0  0  0
   -1.7339  -11.2112    0.0000 O   0  0  0  0  0  0  0  0  0  0  0  0
    6.0991  -12.4244    0.0000 O   0  0  0  0  0  0  0  0  0  0  0  0
    0.6975  -10.4832    0.0000 O   0  0  0  0  0  0  0  0  0  0  0  0
   -2.4474  -14.0842    0.0000 O   0  0  0  0  0  0  0  0  0  0  0  0
    1.8233  -14.0648    0.0000 O   0  0  0  0  0  0  0  0  0  0  0  0
   -0.3023  -16.1323    0.0000 O   0  0  0  0  0  0  0  0  0  0  0  0
    3.9539  -10.3667    0.0000 O   0  0  0  0  0  0  0  0  0  0  0  0
   12.5344  -10.3618    0.0000 O   0  0  0  0  0  0  0  0  0  0  0  0
   -2.4426  -12.4293    0.0000 C   0  0  0  0  0  0  0  0  0  0  0  0
    8.2441  -10.3618    0.0000 O   0  0  0  0  0  0  0  0  0  0  0  0
   10.3892  -12.4244    0.0000 O   0  0  0  0  0  0  0  0  0  0  0  0
    3.9636  -16.1177    0.0000 O   0  0  0  0  0  0  0  0  0  0  0  0
   11.1075  -10.3618    0.0000 C   0  0  0  0  0  0  0  0  0  0  0  0
    2.0030  -13.3416    0.0000 O   0  0  0  0  0  0  0  0  0  0  0  0
    1.8379  -17.3601    0.0000 O   0  0  0  0  0  0  0  0  0  0  0  0
    8.9624  -14.0745    0.0000 O   0  0  0  0  0  0  0  0  0  0  0  0
    8.9624  -12.4244    0.0000 C   0  0  0  0  0  0  0  0  0  0  0  0
   -0.3120  -10.3813    0.0000 C   0  0  0  0  0  0  0  0  0  0  0  0
    6.8173  -10.3618    0.0000 C   0  0  0  0  0  0  0  0  0  0  0  0
    3.2356  -12.6234    0.0000 N   0  0  0  0  0  0  0  0  0  0  0  0
    8.2441  -12.8370    0.0000 C   0  0  0  0  0  0  0  0  0  0  0  0
   16.0092  -11.5897    0.0000 N   0  0  0  0  0  0  0  0  0  0  0  0
   15.2812  -10.3618    0.0000 C   0  0  0  0  0  0  0  0  0  0  0  0
    2.5513  -16.1177    0.0000 O   0  0  0  0  0  0  0  0  0  0  0  0
    7.5307  -14.0745    0.0000 O   0  0  0  0  0  0  0  0  0  0  0  0
   -3.1608  -12.8370    0.0000 C   0  0  0  0  0  0  0  0  0  0  0  0
    2.5125   -8.3381    0.0000 N   0  0  0  0  0  0  0  0  0  0  0  0
    4.6722  -14.0599    0.0000 C   0  0  0  0  0  0  0  0  0  0  0  0
    2.9397  -10.4832    0.0000 C   0  0  0  0  0  0  0  0  0  0  0  0
   10.3892   -9.9493    0.0000 C   0  0  0  0  0  0  0  0  0  0  0  0
    4.6722  -12.4196    0.0000 C   0  0  0  0  0  0  0  0  0  0  0  0
    2.9299   -9.0515    0.0000 C   0  0  0  0  0  0  0  0  0  0  0  0
   -1.0303   -9.9736    0.0000 C   0  0  0  0  0  0  0  0  0  0  0  0
    7.5259   -9.9493    0.0000 C   0  0  0  0  0  0  0  0  0  0  0  0
   15.9898   -9.9347    0.0000 C   0  0  0  0  0  0  0  0  0  0  0  0
    0.4014   -9.9687    0.0000 C   0  0  0  0  0  0  0  0  0  0  0  0
    6.0991   -9.9493    0.0000 C   0  0  0  0  0  0  0  0  0  0  0  0
   14.5581   -9.9591    0.0000 C   0  0  0  0  0  0  0  0  0  0  0  0
   -3.1608  -13.6572    0.0000 C   0  0  0  0  0  0  0  0  0  0  0  0
   -3.8694  -12.4196    0.0000 C   0  0  0  0  0  0  0  0  0  0  0  0
    2.5222   -9.7698    0.0000 C   0  0  0  0  0  0  0  0  0  0  0  0
   10.3892   -9.1243    0.0000 C   0  0  0  0  0  0  0  0  0  0  0  0
    9.6758  -10.3618    0.0000 C   0  0  0  0  0  0  0  0  0  0  0  0
   15.9752   -9.1097    0.0000 C   0  0  0  0  0  0  0  0  0  0  0  0
    7.5259   -9.1243    0.0000 C   0  0  0  0  0  0  0  0  0  0  0  0
   -1.0303   -9.1485    0.0000 C   0  0  0  0  0  0  0  0  0  0  0  0
    5.3857  -13.6523    0.0000 C   0  0  0  0  0  0  0  0  0  0  0  0
    5.3857  -12.8273    0.0000 C   0  0  0  0  0  0  0  0  0  0  0  0
   -3.8742  -14.0696    0.0000 C   0  0  0  0  0  0  0  0  0  0  0  0
   -4.5876  -12.8273    0.0000 C   0  0  0  0  0  0  0  0  0  0  0  0
   -4.5876  -13.6523    0.0000 C   0  0  0  0  0  0  0  0  0  0  0  0
    0.5563  -10.7067    0.0000 H   0  0  0  0  0  0  0  0  0  0  0  0
  2 11  1  0
  3  1  2  0
  4 19  1  0
  5  4  1  0
  6 20  1  0
  7 21  1  0
  8 14  1  0
  9  1  1  0
 10 16  1  0
 11 36  1  0
 12  7  1  0
 13  6  1  0
 14 26  1  0
 15 30  1  0
 16 37  1  0
 17 23  1  0
  9 18  1  1
 19  2  1  0
 20 12  1  0
 21 28  1  0
 22  8  1  0
 23 40  1  0
 24 34  1  0
 25  3  1  0
 26  5  1  0
 27 15  1  0
 28 46  1  0
 29 18  1  0
 30 17  1  6
 31 24  1  0
 20 32  1  1
 21 33  1  1
 34 29  1  6
 35 49  1  0
 36 10  1  0
 37 27  1  1
 22 38  1  6
 39 38  1  0
 40 31  1  6
 41 33  1  0
 42 32  1  0
 43 39  1  0
 44  3  1  0
 45 43  1  0
 46 77  1  0
 47  9  1  0
 48 70  1  0
 49 39  2  0
 50  4  2  0
 51 15  2  0
 52 11  2  0
 53 14  2  0
 54 12  2  0
 55 13  2  0
 56 16  2  0
 57 18  2  0
 26 58  1  1
 59 23  2  0
 60 24  2  0
 61 28  2  0
 34 62  1  0
 63 41  2  0
 64 42  2  0
 65 48  2  0
 40 66  1  0
 67 19  1  0
 68 30  1  0
 69 41  1  0
 70 66  1  0
 44 71  1  6
 72 44  1  0
 73 42  1  0
 74 48  1  0
 75 58  1  0
 76 81  1  0
 77 96  1  0
 36 78  1  1
 79 62  1  0
 37 80  1  0
 81 90  1  0
 82 67  1  0
 83 68  1  0
 84 72  1  0
 67 85  1  6
 68 86  1  1
 72 87  1  1
 88 75  1  0
 89 75  2  0
 90 78  1  0
 91 79  1  0
 92 79  1  0
 93 84  1  0
 94 83  1  0
 95 82  1  0
 96 97  1  0
 97 80  1  0
 98 88  2  0
 99 89  1  0
100 98  1  0
 25 47  1  0
 13 22  1  0
100 99  2  0
 45 35  2  0
 19101  1  1
M  END

> <chembl_id>
CHEMBL1200558

> <chembl_pref_name>
BACITRACIN

$$$$

     RDKit          2D

 18 19  0  0  0  0  0  0  0  0999 V2000
    5.2000   -5.1042    0.0000 S   0  0  0  0  0  0  0  0  0  0  0  0
    5.5417   -4.5000    0.0000 N   0  0  0  0  0  0  0  0  0  0  0  0
    6.2542   -4.4792    0.0000 C   0  0  0  0  0  0  0  0  0  0  0  0
    6.6292   -5.0792    0.0000 N   0  0  0  0  0  0  0  0  0  0  0  0
    4.5167   -4.9417    0.0000 C   0  0  0  0  0  0  0  0  0  0  0  0
    4.9792   -5.7875    0.0000 O   0  0  0  0  0  0  0  0  0  0  0  0
    5.8500   -5.4042    0.0000 O   0  0  0  0  0  0  0  0  0  0  0  0
    6.6042   -3.8625    0.0000 N   0  0  0  0  0  0  0  0  0  0  0  0
    4.3167   -4.2542    0.0000 C   0  0  0  0  0  0  0  0  0  0  0  0
    4.0167   -5.4542    0.0000 C   0  0  0  0  0  0  0  0  0  0  0  0
    7.3417   -5.0667    0.0000 C   0  0  0  0  0  0  0  0  0  0  0  0
    7.3167   -3.8500    0.0000 C   0  0  0  0  0  0  0  0  0  0  0  0
    3.1292   -4.6042    0.0000 C   0  0  0  0  0  0  0  0  0  0  0  0
    2.4417   -4.4375    0.0000 N   0  0  0  0  0  0  0  0  0  0  0  0
    7.6792   -4.4542    0.0000 C   0  0  0  0  0  0  0  0  0  0  0  0
    3.3292   -5.2792    0.0000 C   0  0  0  0  0  0  0  0  0  0  0  0
    3.6292   -4.0917    0.0000 C   0  0  0  0  0  0  0  0  0  0  0  0
    7.7042   -5.6792    0.0000 C   0  0  0  0  0  0  0  0  0  0  0  0
  2  1  1  0
  3  2  1  0
  4  3  1  0
  5  1  1  0
  6  1  2  0
  7  1  2  0
  8  3  2  0
  9  5  2  0
 10  5  1  0
 11  4  2  0
 12  8  1  0
 13 16  1  0
 14 13  1  0
 15 12  2  0
 16 10  2  0
 17  9  1  0
 18 11  1  0
 17 13  2  0
 11 15  1  0
M  END

> <chembl_id>
CHEMBL438

> <chembl_pref_name>
SULFAMERAZINE

$$$$

     RDKit          2D

 41 43  0  0  0  0  0  0  0  0999 V2000
    7.9667   -8.8542    0.0000 C   0  0  0  0  0  0  0  0  0  0  0  0
    7.3667   -9.2042    0.0000 C   0  0  0  0  0  0  0  0  0  0  0  0
    7.9417   -8.1792    0.0000 O   0  0  0  0  0  0  0  0  0  0  0  0
    7.3542   -9.9667    0.0000 C   0  0  0  0  0  0  0  0  0  0  0  0
    6.7042   -8.8292    0.0000 C   0  0  0  0  0  0  0  0  0  0  0  0
    8.5667   -9.2125    0.0000 O   0  0  0  0  0  0  0  0  0  0  0  0
    6.0667   -9.9417    0.0000 C   0  0  0  0  0  0  0  0  0  0  0  0
   10.3750   -8.8625    0.0000 N   0  0  0  0  0  0  0  0  0  0  0  0
    5.4542  -10.2917    0.0000 N   0  0  0  0  0  0  0  0  0  0  0  0
    6.7125  -10.3250    0.0000 C   0  0  0  0  0  0  0  0  0  0  0  0
    6.0667   -9.1917    0.0000 C   0  0  0  0  0  0  0  0  0  0  0  0
    9.1750   -8.8667    0.0000 C   0  0  0  0  0  0  0  0  0  0  0  0
    9.7667   -9.2042    0.0000 C   0  0  0  0  0  0  0  0  0  0  0  0
   10.3542   -8.1667    0.0000 C   0  0  0  0  0  0  0  0  0  0  0  0
   10.9583   -9.2167    0.0000 C   0  0  0  0  0  0  0  0  0  0  0  0
   10.9542   -7.8125    0.0000 C   0  0  0  0  0  0  0  0  0  0  0  0
   11.5750   -8.8792    0.0000 C   0  0  0  0  0  0  0  0  0  0  0  0
    3.1417   -9.1542    0.0000 N   0  0  0  0  0  0  0  0  0  0  0  0
    3.1375   -8.4500    0.0000 C   0  0  0  0  0  0  0  0  0  0  0  0
    2.4292   -9.1625    0.0000 C   0  0  0  0  0  0  0  0  0  0  0  0
    2.4292   -8.4500    0.0000 C   0  0  0  0  0  0  0  0  0  0  0  0
    3.8167   -9.3750    0.0000 C   0  0  0  0  0  0  0  0  0  0  0  0
    3.8125   -8.2292    0.0000 S   0  0  0  0  0  0  0  0  0  0  0  0
    4.2292   -8.8000    0.0000 C   0  0  0  0  0  0  0  0  0  0  0  0
    1.8125   -8.0917    0.0000 N   0  0  0  0  0  0  0  0  0  0  0  0
    3.8125  -10.0792    0.0000 C   0  0  0  0  0  0  0  0  0  0  0  0
    1.1917   -8.4500    0.0000 C   0  0  0  0  0  0  0  0  0  0  0  0
    1.9292   -9.6625    0.0000 O   0  0  0  0  0  0  0  0  0  0  0  0
    3.1917  -10.4292    0.0000 O   0  0  0  0  0  0  0  0  0  0  0  0
    1.1917   -9.1542    0.0000 O   0  0  0  0  0  0  0  0  0  0  0  0
    0.5792   -8.0917    0.0000 C   0  0  0  0  0  0  0  0  0  0  0  0
    4.4167  -10.4417    0.0000 O   0  0  0  0  0  0  0  0  0  0  0  0
    4.8417   -9.1542    0.0000 C   0  0  0  0  0  0  0  0  0  0  0  0
    4.8417   -8.4417    0.0000 C   0  0  0  0  0  0  0  0  0  0  0  0
   -0.0333   -8.4500    0.0000 C   0  0  0  0  0  0  0  0  0  0  0  0
   -0.0333   -9.1500    0.0000 C   0  0  0  0  0  0  0  0  0  0  0  0
   -0.6458   -8.0917    0.0000 C   0  0  0  0  0  0  0  0  0  0  0  0
   -1.2583   -8.4417    0.0000 C   0  0  0  0  0  0  0  0  0  0  0  0
   -0.6375   -9.5042    0.0000 C   0  0  0  0  0  0  0  0  0  0  0  0
   -1.2583   -9.1542    0.0000 C   0  0  0  0  0  0  0  0  0  0  0  0
    3.1292   -7.7417    0.0000 H   0  0  0  0  0  0  0  0  0  0  0  0
  2  1  1  0
  3  1  2  0
  4  2  1  0
  5  2  2  0
  6  1  1  0
  7 11  2  0
  8 13  1  0
  9  7  1  0
 10  4  2  0
 11  5  1  0
 12  6  1  0
 13 12  1  0
 14  8  1  0
 15  8  1  0
 16 14  1  0
 17 15  1  0
  7 10  1  0
 19 18  1  0
 20 18  1  0
 21 20  1  0
 22 18  1  0
 23 19  1  0
 24 22  1  0
 21 25  1  1
 22 26  1  6
 27 25  1  0
 28 20  2  0
 29 26  2  0
 30 27  2  0
 31 27  1  0
 32 26  1  0
 33 24  1  0
 34 24  1  0
 35 31  1  0
 36 35  1  0
 37 35  2  0
 38 37  1  0
 39 36  2  0
 40 38  2  0
 19 41  1  6
 23 24  1  0
 21 19  1  0
 40 39  1  0
M  END

> <chembl_id>
CHEMBL1628385

> <chembl_pref_name>
PROCAINE BENZYLPENICILLIN

$$$$

     RDKit          2D

 31 35  0  0  1  0  0  0  0  0999 V2000
    1.4125   -2.0000    0.0000 N   0  0  0  0  0  0  0  0  0  0  0  0
    2.0292   -0.9375    0.0000 C   0  0  0  0  0  0  0  0  0  0  0  0
    0.8000   -1.6417    0.0000 C   0  0  0  0  0  0  0  0  0  0  0  0
    0.8000   -0.9375    0.0000 C   0  0  0  0  0  0  0  0  0  0  0  0
    2.0292   -1.6417    0.0000 C   0  0  0  0  0  0  0  0  0  0  0  0
    1.4125   -0.5792    0.0000 C   0  0  0  0  0  0  0  0  0  0  0  0
    0.1875   -2.0000    0.0000 C   0  0  0  0  0  0  0  0  0  0  0  0
   -0.4333   -1.6417    0.0000 C   0  0  0  0  0  0  0  0  0  0  0  0
    1.4125   -2.7125    0.0000 C   0  0  0  0  0  0  0  0  0  0  0  0
    2.6500   -0.5792    0.0000 C   0  0  0  0  0  0  0  0  0  0  0  0
   -1.1375   -1.6542    0.0000 C   0  0  0  0  0  0  0  0  0  0  0  0
   -2.1833   -2.2667    0.0000 C   0  0  0  0  0  0  0  0  0  0  0  0
   -3.3083   -2.5042    0.0000 N   0  0  0  0  0  0  0  0  0  0  0  0
    0.1917   -0.5792    0.0000 C   0  0  0  0  0  0  0  0  0  0  0  0
   -2.5458   -1.6625    0.0000 C   0  0  0  0  0  0  0  0  0  0  0  0
    0.1875   -2.7042    0.0000 O   0  0  0  0  0  0  0  0  0  0  0  0
    1.0542   -3.3292    0.0000 C   0  0  0  0  0  0  0  0  0  0  0  0
    1.7667   -3.3250    0.0000 C   0  0  0  0  0  0  0  0  0  0  0  0
   -1.4833   -2.2667    0.0000 C   0  0  0  0  0  0  0  0  0  0  0  0
   -0.4333   -0.9375    0.0000 C   0  0  0  0  0  0  0  0  0  0  0  0
   -0.4250   -3.0625    0.0000 C   0  0  0  0  0  0  0  0  0  0  0  0
   -2.1958   -1.0500    0.0000 C   0  0  0  0  0  0  0  0  0  0  0  0
   -2.6625   -2.7917    0.0000 C   0  0  0  0  0  0  0  0  0  0  0  0
   -3.2333   -1.8167    0.0000 C   0  0  0  0  0  0  0  0  0  0  0  0
    1.4125    0.1250    0.0000 O   0  0  0  0  0  0  0  0  0  0  0  0
   -1.4875   -1.0417    0.0000 C   0  0  0  0  0  0  0  0  0  0  0  0
    3.2625   -0.9375    0.0000 O   0  0  0  0  0  0  0  0  0  0  0  0
    2.6542    0.1333    0.0000 O   0  0  0  0  0  0  0  0  0  0  0  0
   -1.0375   -2.7042    0.0000 F   0  0  0  0  0  0  0  0  0  0  0  0
   -0.4250   -3.7750    0.0000 F   0  0  0  0  0  0  0  0  0  0  0  0
   -3.7750   -1.3417    0.0000 C   0  0  0  0  0  0  0  0  0  0  0  0
  2  5  2  0
  3  1  1  0
  4  3  2  0
  5  1  1  0
  6  4  1  0
  7  3  1  0
  8  7  2  0
  9  1  1  0
 10  2  1  0
 11  8  1  0
 12 19  1  0
 13 23  1  0
 14  4  1  0
 15 22  1  0
 16  7  1  0
 17  9  1  0
 18  9  1  0
 19 11  2  0
 20 14  2  0
 21 16  1  0
 22 26  2  0
 23 12  1  0
 24 15  1  0
 25  6  2  0
 26 11  1  0
 27 10  2  0
 28 10  1  0
 29 21  1  0
 30 21  1  0
 24 31  1  6
 17 18  1  0
  2  6  1  0
 20  8  1  0
 12 15  2  0
 24 13  1  0
M  END

> <chembl_id>
CHEMBL215303

> <chembl_pref_name>
GARENOXACIN

$$$$

     RDKit          2D

 26 28  0  0  1  0  0  0  0  0999 V2000
    1.3626    0.6013    0.0000 N   0  0  0  0  0  0  0  0  0  0  0  0
    0.5376    0.6013    0.0000 C   0  0  0  0  0  0  0  0  0  0  0  0
    0.5376   -0.2237    0.0000 C   0  0  0  0  0  0  0  0  0  0  0  0
    1.3626   -0.2237    0.0000 C   0  0  0  0  0  0  0  0  0  0  0  0
    2.0770    1.0138    0.0000 C   0  0  0  0  0  0  0  0  0  0  0  0
    2.0770   -0.6362    0.0000 S   0  0  0  0  0  0  0  0  0  0  0  0
    2.7915    0.6013    0.0000 C   0  0  0  0  0  0  0  0  0  0  0  0
    2.0770    1.8388    0.0000 C   0  0  0  0  0  0  0  0  0  0  0  0
    2.7915   -0.2237    0.0000 C   0  0  0  0  0  0  0  0  0  0  0  0
    2.7915    2.2513    0.0000 O   0  0  0  0  0  0  0  0  0  0  0  0
    3.5060    1.0138    0.0000 O   0  0  0  0  0  0  0  0  0  0  0  0
    1.3626    2.2513    0.0000 O   0  0  0  0  0  0  0  0  0  0  0  0
    4.2205    0.6013    0.0000 C   0  0  0  0  0  0  0  0  0  0  0  0
    1.1490   -1.0206    0.0000 H   0  0  0  0  0  0  0  0  0  0  0  0
   -0.0458    1.1846    0.0000 O   0  0  0  0  0  0  0  0  0  0  0  0
   -0.0458   -0.8071    0.0000 N   0  0  0  0  0  0  0  0  0  0  0  0
   -0.8427   -0.5936    0.0000 C   0  0  0  0  0  0  0  0  0  0  0  0
   -1.0562    0.2033    0.0000 O   0  0  0  0  0  0  0  0  0  0  0  0
   -1.4260   -1.1769    0.0000 C   0  0  0  0  0  0  0  0  0  0  0  0
   -2.2229   -0.9634    0.0000 C   0  0  0  0  0  0  0  0  0  0  0  0
   -1.2125   -1.9738    0.0000 N   0  0  0  0  0  0  0  0  0  0  0  0
   -2.8063   -1.5468    0.0000 C   0  0  0  0  0  0  0  0  0  0  0  0
   -3.6032   -1.3332    0.0000 C   0  0  0  0  0  0  0  0  0  0  0  0
   -3.8167   -0.5364    0.0000 C   0  0  0  0  0  0  0  0  0  0  0  0
   -3.2333    0.0470    0.0000 C   0  0  0  0  0  0  0  0  0  0  0  0
   -2.4365   -0.1665    0.0000 C   0  0  0  0  0  0  0  0  0  0  0  0
  2  1  1  0
  3  4  1  0
  4  1  1  0
  5  1  1  0
  6  4  1  0
  7  5  2  0
  8  5  1  0
  9  7  1  0
 10  8  2  0
 11  7  1  0
 12  8  1  0
 13 11  1  0
  4 14  1  1
  2  3  1  0
  6  9  1  0
  2 15  2  0
  3 16  1  6
 16 17  1  0
 17 18  2  0
 17 19  1  0
 19 20  1  0
 19 21  1  6
 20 22  1  0
 20 26  2  0
 22 23  1  0
 23 24  2  0
 24 25  1  0
 25 26  1  0
M  END

> <chembl_id>
CHEMBL3186538

> <chembl_pref_name>
CEFROXADINE

$$$$

     RDKit          2D

 32 36  0  0  1  0  0  0  0  0999 V2000
    0.8833   -7.8375    0.0000 C   0  0  0  0  0  0  0  0  0  0  0  0
    1.4958   -7.4792    0.0000 N   0  0  0  0  0  0  0  0  0  0  0  0
   -2.1042   -7.4792    0.0000 C   0  0  0  0  0  0  0  0  0  0  0  0
   -1.8833   -6.8125    0.0000 C   0  0  0  0  0  0  0  0  0  0  0  0
    0.8833   -8.5500    0.0000 C   0  0  0  0  0  0  0  0  0  0  0  0
    2.1125   -8.5500    0.0000 C   0  0  0  0  0  0  0  0  0  0  0  0
    0.2708   -7.4833    0.0000 N   0  0  0  0  0  0  0  0  0  0  0  0
   -0.9542   -7.4833    0.0000 N   0  0  0  0  0  0  0  0  0  0  0  0
   -2.5708   -6.9542    0.0000 C   0  0  0  0  0  0  0  0  0  0  0  0
    1.4958   -8.9042    0.0000 C   0  0  0  0  0  0  0  0  0  0  0  0
    2.1125   -7.8375    0.0000 C   0  0  0  0  0  0  0  0  0  0  0  0
   -0.3417   -7.8375    0.0000 C   0  0  0  0  0  0  0  0  0  0  0  0
   -1.1750   -6.8125    0.0000 C   0  0  0  0  0  0  0  0  0  0  0  0
   -1.5292   -7.9042    0.0000 C   0  0  0  0  0  0  0  0  0  0  0  0
    1.4958   -6.7708    0.0000 C   0  0  0  0  0  0  0  0  0  0  0  0
    0.2708   -8.9042    0.0000 C   0  0  0  0  0  0  0  0  0  0  0  0
    2.7250   -8.9042    0.0000 C   0  0  0  0  0  0  0  0  0  0  0  0
   -0.3417   -8.5500    0.0000 C   0  0  0  0  0  0  0  0  0  0  0  0
    0.8833   -6.4208    0.0000 C   0  0  0  0  0  0  0  0  0  0  0  0
    0.8792   -5.7167    0.0000 C   0  0  0  0  0  0  0  0  0  0  0  0
    2.1083   -6.4208    0.0000 C   0  0  0  0  0  0  0  0  0  0  0  0
    1.4917   -9.6125    0.0000 O   0  0  0  0  0  0  0  0  0  0  0  0
    2.7250   -9.6125    0.0000 O   0  0  0  0  0  0  0  0  0  0  0  0
   -3.2417   -6.7333    0.0000 N   0  0  0  0  0  0  0  0  0  0  0  0
    1.4958   -5.3583    0.0000 C   0  0  0  0  0  0  0  0  0  0  0  0
   -0.9542   -8.9042    0.0000 F   0  0  0  0  0  0  0  0  0  0  0  0
    0.2708   -6.7792    0.0000 F   0  0  0  0  0  0  0  0  0  0  0  0
    3.3375   -8.5500    0.0000 O   0  0  0  0  0  0  0  0  0  0  0  0
    2.1083   -5.7125    0.0000 C   0  0  0  0  0  0  0  0  0  0  0  0
    1.4958   -4.6500    0.0000 F   0  0  0  0  0  0  0  0  0  0  0  0
   -2.7208   -7.8292    0.0000 H   0  0  0  0  0  0  0  0  0  0  0  0
   -1.8875   -6.1042    0.0000 H   0  0  0  0  0  0  0  0  0  0  0  0
  2  1  1  0
  3 14  1  0
  4 13  1  0
  5  1  1  0
  6 10  1  0
  7  1  2  0
  8 12  1  0
  9  4  1  0
 10  5  1  0
 11  2  1  0
 12  7  1  0
 13  8  1  0
 14  8  1  0
 15  2  1  0
 16  5  2  0
 17  6  1  0
 18 16  1  0
 19 15  1  0
 20 19  2  0
 21 15  2  0
 22 10  2  0
 23 17  2  0
  9 24  1  1
 25 29  2  0
 26 18  1  0
 27 19  1  0
 28 17  1  0
 29 21  1  0
 30 25  1  0
  3 31  1  1
  4 32  1  1
 11  6  2  0
 18 12  2  0
  3  4  1  0
 20 25  1  0
  9  3  1  0
M  END

> <chembl_id>
CHEMBL428

> <chembl_pref_name>
TROVAFLOXACIN

$$$$

     RDKit          2D

 31 33  0  0  1  0  0  0  0  0999 V2000
    2.8775   -2.5351    0.0000 C   0  0  0  0  0  0  0  0  0  0  0  0
    2.1653   -2.9544    0.0000 C   0  0  0  0  0  0  0  0  0  0  0  0
    1.4480   -2.5442    0.0000 C   0  0  0  0  0  0  0  0  0  0  0  0
    0.7358   -2.9635    0.0000 C   0  0  0  0  0  0  0  0  0  0  0  0
    0.0185   -2.5533    0.0000 N   0  0  0  0  0  0  0  0  0  0  0  0
    0.0131   -1.7283    0.0000 C   0  0  0  0  0  0  0  0  0  0  0  0
   -0.8119   -1.7335    0.0000 C   0  0  0  0  0  0  0  0  0  0  0  0
   -0.8066   -2.5585    0.0000 C   0  0  0  0  0  0  0  0  0  0  0  0
   -1.3824   -3.1463    0.0000 O   0  0  0  0  0  0  0  0  0  0  0  0
   -1.5189   -1.3184    0.0000 N   0  0  0  0  0  0  0  0  0  0  0  0
   -2.2360   -1.7245    0.0000 C   0  0  0  0  0  0  0  0  0  0  0  0
   -2.2414   -2.5491    0.0000 O   0  0  0  0  0  0  0  0  0  0  0  0
   -2.9479   -1.3104    0.0000 C   0  0  0  0  0  0  0  0  0  0  0  0
   -3.6650   -1.7165    0.0000 N   0  0  0  0  0  0  0  0  0  0  0  0
   -3.6704   -2.5411    0.0000 O   0  0  0  0  0  0  0  0  0  0  0  0
   -4.3875   -2.9518    0.0000 C   0  0  0  0  0  0  0  0  0  0  0  0
   -4.3928   -3.7765    0.0000 C   0  0  0  0  0  0  0  0  0  0  0  0
   -5.1100   -4.1826    0.0000 O   0  0  0  0  0  0  0  0  0  0  0  0
   -3.6811   -4.1906    0.0000 O   0  0  0  0  0  0  0  0  0  0  0  0
   -2.9425   -0.4856    0.0000 C   0  0  0  0  0  0  0  0  0  0  0  0
   -2.2711   -0.0028    0.0000 C   0  0  0  0  0  0  0  0  0  0  0  0
   -2.5255    0.7825    0.0000 S   0  0  0  0  0  0  0  0  0  0  0  0
   -3.3503    0.7879    0.0000 C   0  0  0  0  0  0  0  0  0  0  0  0
   -3.6105    0.0057    0.0000 N   0  0  0  0  0  0  0  0  0  0  0  0
   -3.8286    1.4593    0.0000 N   0  0  0  0  0  0  0  0  0  0  0  0
    0.7253   -1.3135    0.0000 S   0  0  0  0  0  0  0  0  0  0  0  0
    1.4427   -1.7191    0.0000 C   0  0  0  0  0  0  0  0  0  0  0  0
    0.7411   -3.7886    0.0000 C   0  0  0  0  0  0  0  0  0  0  0  0
    1.4585   -4.1943    0.0000 O   0  0  0  0  0  0  0  0  0  0  0  0
    0.0290   -4.2034    0.0000 O   0  0  0  0  0  0  0  0  0  0  0  0
    0.0046   -0.9025    0.0000 H   0  0  0  0  0  0  0  0  0  0  0  0
  1  2  2  0
  2  3  1  0
  3  4  2  0
  4  5  1  0
  5  6  1  0
  6  7  1  0
  7  8  1  0
  5  8  1  0
  8  9  2  0
  7 10  1  1
 10 11  1  0
 11 12  2  0
 11 13  1  0
 13 14  2  0
 14 15  1  0
 15 16  1  0
 16 17  1  0
 17 18  2  0
 17 19  1  0
 13 20  1  0
 20 21  2  0
 21 22  1  0
 22 23  1  0
 23 24  2  0
 20 24  1  0
 23 25  1  0
  6 26  1  0
 26 27  1  0
  3 27  1  0
  4 28  1  0
 28 29  2  0
 28 30  1  0
  6 31  1  6
M  END

> <chembl_id>
CHEMBL1541

> <chembl_pref_name>
CEFIXIME

$$$$

     RDKit          2D

 59 62  0  0  0  0  0  0  0  0999 V2000
   -1.4495  -11.3233    0.0000 C   0  0  0  0  0  0  0  0  0  0  0  0
   -2.1641  -11.7357    0.0000 C   0  0  0  0  0  0  0  0  0  0  0  0
   -2.1641  -12.5608    0.0000 C   0  0  0  0  0  0  0  0  0  0  0  0
   -1.4496  -12.9733    0.0000 O   0  0  0  0  0  0  0  0  0  0  0  0
   -0.7351  -12.5607    0.0000 C   0  0  0  0  0  0  0  0  0  0  0  0
   -1.4496  -10.4983    0.0000 C   0  0  0  0  0  0  0  0  0  0  0  0
   -0.7351  -10.0858    0.0000 C   0  0  0  0  0  0  0  0  0  0  0  0
   -0.7351   -9.2607    0.0000 C   0  0  0  0  0  0  0  0  0  0  0  0
   -0.0207   -8.8482    0.0000 C   0  0  0  0  0  0  0  0  0  0  0  0
    0.6938   -9.2607    0.0000 C   0  0  0  0  0  0  0  0  0  0  0  0
    0.6938  -10.0857    0.0000 C   0  0  0  0  0  0  0  0  0  0  0  0
   -0.0206  -12.9733    0.0000 C   0  0  0  0  0  0  0  0  0  0  0  0
    0.6939  -12.5608    0.0000 C   0  0  0  0  0  0  0  0  0  0  0  0
    0.6939  -11.7357    0.0000 C   0  0  0  0  0  0  0  0  0  0  0  0
    1.4084  -10.4981    0.0000 C   0  0  0  0  0  0  0  0  0  0  0  0
    1.4083  -11.3232    0.0000 C   0  0  0  0  0  0  0  0  0  0  0  0
   -0.0207  -11.3233    0.0000 O   0  0  0  0  0  0  0  0  0  0  0  0
   -0.0206  -10.4983    0.0000 C   0  0  0  0  0  0  0  0  0  0  0  0
   -0.7351  -11.7357    0.0000 O   0  0  0  0  0  0  0  0  0  0  0  0
    1.4083   -8.8481    0.0000 C   0  0  0  0  0  0  0  0  0  0  0  0
    2.1228  -10.0856    0.0000 C   0  0  0  0  0  0  0  0  0  0  0  0
    2.8372  -10.4981    0.0000 C   0  0  0  0  0  0  0  0  0  0  0  0
    2.8372  -11.3231    0.0000 O   0  0  0  0  0  0  0  0  0  0  0  0
    2.1229  -11.7356    0.0000 O   0  0  0  0  0  0  0  0  0  0  0  0
    2.5354  -12.4501    0.0000 C   0  0  0  0  0  0  0  0  0  0  0  0
    1.4084  -12.9733    0.0000 O   0  0  0  0  0  0  0  0  0  0  0  0
    2.1229  -13.1645    0.0000 O   0  0  0  0  0  0  0  0  0  0  0  0
    2.5354  -13.8790    0.0000 C   0  0  0  0  0  0  0  0  0  0  0  0
    3.3603  -13.8791    0.0000 C   0  0  0  0  0  0  0  0  0  0  0  0
    3.7728  -13.1646    0.0000 C   0  0  0  0  0  0  0  0  0  0  0  0
    3.3603  -12.4500    0.0000 C   0  0  0  0  0  0  0  0  0  0  0  0
    3.7728  -11.7356    0.0000 O   0  0  0  0  0  0  0  0  0  0  0  0
    4.5979  -13.1645    0.0000 N   0  0  0  0  0  0  0  0  0  0  0  0
    5.0104  -12.4501    0.0000 C   0  0  0  0  0  0  0  0  0  0  0  0
    5.0104  -13.8790    0.0000 C   0  0  0  0  0  0  0  0  0  0  0  0
    3.7728  -14.5936    0.0000 O   0  0  0  0  0  0  0  0  0  0  0  0
    3.3603  -15.3080    0.0000 C   0  0  0  0  0  0  0  0  0  0  0  0
    2.1229  -14.5935    0.0000 C   0  0  0  0  0  0  0  0  0  0  0  0
   -2.8786  -12.9733    0.0000 C   0  0  0  0  0  0  0  0  0  0  0  0
   -0.0207   -8.0231    0.0000 O   0  0  0  0  0  0  0  0  0  0  0  0
    0.3918   -7.3087    0.0000 C   0  0  0  0  0  0  0  0  0  0  0  0
    1.2168   -7.3087    0.0000 O   0  0  0  0  0  0  0  0  0  0  0  0
    1.6293   -6.5942    0.0000 C   0  0  0  0  0  0  0  0  0  0  0  0
    1.2168   -5.8797    0.0000 C   0  0  0  0  0  0  0  0  0  0  0  0
    0.3919   -5.8798    0.0000 C   0  0  0  0  0  0  0  0  0  0  0  0
   -0.0206   -6.5942    0.0000 C   0  0  0  0  0  0  0  0  0  0  0  0
    2.4544   -6.5942    0.0000 C   0  0  0  0  0  0  0  0  0  0  0  0
    1.6293   -5.1652    0.0000 N   0  0  0  0  0  0  0  0  0  0  0  0
    1.2169   -4.4508    0.0000 C   0  0  0  0  0  0  0  0  0  0  0  0
    2.4543   -5.1653    0.0000 C   0  0  0  0  0  0  0  0  0  0  0  0
    2.5353  -15.3080    0.0000 O   0  0  0  0  0  0  0  0  0  0  0  0
    2.1228  -16.0225    0.0000 C   0  0  0  0  0  0  0  0  0  0  0  0
    2.5353  -16.7370    0.0000 C   0  0  0  0  0  0  0  0  0  0  0  0
    3.3604  -16.7370    0.0000 C   0  0  0  0  0  0  0  0  0  0  0  0
    3.7729  -16.0225    0.0000 C   0  0  0  0  0  0  0  0  0  0  0  0
    1.2979  -16.0225    0.0000 C   0  0  0  0  0  0  0  0  0  0  0  0
    2.1228  -17.4514    0.0000 O   0  0  0  0  0  0  0  0  0  0  0  0
    4.0748  -17.1495    0.0000 O   0  0  0  0  0  0  0  0  0  0  0  0
    3.3604  -17.5619    0.0000 C   0  0  0  0  0  0  0  0  0  0  0  0
  1  2  1  0
  2  3  1  0
  3  4  1  0
  4  5  1  0
  1  6  2  0
  6  7  1  0
  7  8  2  0
  8  9  1  0
  9 10  1  0
 10 11  1  0
  5 12  1  0
 12 13  1  0
 13 14  1  0
 11 15  1  0
 16 14  1  0
 15 16  1  0
 14 17  1  6
 17 18  1  0
  5 19  2  0
 10 20  1  6
 15 21  1  6
 21 22  1  0
 22 23  2  0
 16 24  1  6
 25 24  1  1
 13 26  1  6
 25 27  1  0
 31 25  1  0
 27 28  1  0
 28 29  1  0
 29 30  1  0
 30 31  1  0
 31 32  1  6
 30 33  1  1
 33 34  1  0
 33 35  1  0
 29 36  1  6
 37 36  1  1
 28 38  1  1
  3 39  1  6
  9 40  1  6
 41 40  1  1
 41 42  1  0
 46 41  1  0
 42 43  1  0
 43 44  1  0
 44 45  1  0
 45 46  1  0
 43 47  1  1
 44 48  1  6
 48 49  1  0
 48 50  1  0
 37 51  1  0
 55 37  1  0
 51 52  1  0
 52 53  1  0
 53 54  1  0
 54 55  1  0
 52 56  1  6
 53 57  1  1
 54 58  1  1
 54 59  1  6
M  END

> <chembl_id>
CHEMBL453514

> <chembl_pref_name>
SPIRAMYCIN

$$$$

     RDKit          2D

 25 27  0  0  1  0  0  0  0  0999 V2000
    4.4028    0.2427    0.0000 N   0  0  0  0  0  0  0  0  0  0  0  0
    2.9467    0.5893    0.0000 C   0  0  0  0  0  0  0  0  0  0  0  0
    4.0387   -1.2480    0.0000 C   0  0  0  0  0  0  0  0  0  0  0  0
    2.5654   -0.9014    0.0000 C   0  0  0  0  0  0  0  0  0  0  0  0
    5.1654    1.5080    0.0000 C   0  0  0  0  0  0  0  0  0  0  0  0
    2.8254    2.0454    0.0000 S   0  0  0  0  0  0  0  0  0  0  0  0
    4.1948    2.6347    0.0000 C   0  0  0  0  0  0  0  0  0  0  0  0
    1.2905   -1.6806    0.0000 N   0  0  0  0  0  0  0  0  0  0  0  0
    1.3272   -3.1809    0.0000 C   0  0  0  0  0  0  0  0  0  0  0  0
    6.6590    1.6292    0.0000 C   0  0  0  0  0  0  0  0  0  0  0  0
    0.0467   -3.9637    0.0000 C   0  0  0  0  0  0  0  0  0  0  0  0
    4.6661   -2.2710    0.0000 O   0  0  0  0  0  0  0  0  0  0  0  0
    2.3809   -3.7550    0.0000 O   0  0  0  0  0  0  0  0  0  0  0  0
    7.3417    0.6422    0.0000 O   0  0  0  0  0  0  0  0  0  0  0  0
    0.0833   -5.4641    0.0000 C   0  0  0  0  0  0  0  0  0  0  0  0
   -1.0071   -3.3896    0.0000 N   0  0  0  0  0  0  0  0  0  0  0  0
    7.1727    2.7136    0.0000 O   0  0  0  0  0  0  0  0  0  0  0  0
    5.3472    2.9691    0.0000 C   0  0  0  0  0  0  0  0  0  0  0  0
    3.3052    3.4401    0.0000 C   0  0  0  0  0  0  0  0  0  0  0  0
   -1.1954   -6.2483    0.0000 C   0  0  0  0  0  0  0  0  0  0  0  0
    1.4018   -6.1795    0.0000 C   0  0  0  0  0  0  0  0  0  0  0  0
   -1.1556   -7.7478    0.0000 C   0  0  0  0  0  0  0  0  0  0  0  0
    1.4415   -7.6790    0.0000 C   0  0  0  0  0  0  0  0  0  0  0  0
    0.1628   -8.4631    0.0000 C   0  0  0  0  0  0  0  0  0  0  0  0
    1.9502    0.6729    0.0000 H   0  0  0  0  0  0  0  0  0  0  0  0
  2  1  1  0
  3  1  1  0
  4  3  1  0
  5  1  1  0
  6  2  1  0
  7  5  1  0
  4  8  1  1
  9  8  1  0
  5 10  1  6
 11  9  1  0
 12  3  2  0
 13  9  2  0
 14 10  2  0
 15 11  1  0
 11 16  1  1
 17 10  1  0
 18  7  1  0
 19  7  1  0
 20 15  2  0
 21 15  1  0
 22 20  1  0
 23 21  2  0
 24 23  1  0
  2 25  1  6
  6  7  1  0
  2  4  1  0
 22 24  2  0
M  END

> <chembl_id>
CHEMBL174

> <chembl_pref_name>
AMPICILLIN

$$$$

     RDKit          2D

 35 37  0  0  1  0  0  0  0  0999 V2000
    1.9782    5.3332    0.0000 S   0  0  0  0  0  0  0  0  0  0  0  0
    0.9392    2.7845    0.0000 O   0  0  0  0  0  0  0  0  0  0  0  0
   -0.5096    5.7660    0.0000 O   0  0  0  0  0  0  0  0  0  0  0  0
   -0.5843    4.3390    0.0000 O   0  0  0  0  0  0  0  0  0  0  0  0
    3.5775    4.5374    0.0000 O   0  0  0  0  0  0  0  0  0  0  0  0
    5.7209    2.4749    0.0000 O   0  0  0  0  0  0  0  0  0  0  0  0
    4.2920   -0.0001    0.0000 O   0  0  0  0  0  0  0  0  0  0  0  0
    7.8644    4.5374    0.0000 O   0  0  0  0  0  0  0  0  0  0  0  0
    1.1382    4.2958    0.0000 N   0  0  0  0  0  0  0  0  0  0  0  0
    2.8631    3.2999    0.0000 N   0  0  0  0  0  0  0  0  0  0  0  0
    5.0065    3.7124    0.0000 N   0  0  0  0  0  0  0  0  0  0  0  0
    6.4354    4.5374    0.0000 N   0  0  0  0  0  0  0  0  0  0  0  0
    8.5788    3.2999    0.0000 N   0  0  0  0  0  0  0  0  0  0  0  0
    1.9351    4.5093    0.0000 C   0  0  0  0  0  0  0  0  0  0  0  0
    2.1486    3.7124    0.0000 C   0  0  0  0  0  0  0  0  0  0  0  0
    0.6889    4.9877    0.0000 C   0  0  0  0  0  0  0  0  0  0  0  0
    1.3517    3.4989    0.0000 C   0  0  0  0  0  0  0  0  0  0  0  0
    1.2080    5.6289    0.0000 C   0  0  0  0  0  0  0  0  0  0  0  0
   -0.1350    5.0309    0.0000 C   0  0  0  0  0  0  0  0  0  0  0  0
    1.4132    6.4279    0.0000 C   0  0  0  0  0  0  0  0  0  0  0  0
    0.6308    6.2183    0.0000 C   0  0  0  0  0  0  0  0  0  0  0  0
    3.5775    3.7124    0.0000 C   0  0  0  0  0  0  0  0  0  0  0  0
    4.2920    3.2999    0.0000 C   0  0  0  0  0  0  0  0  0  0  0  0
    4.2920    2.4749    0.0000 C   0  0  0  0  0  0  0  0  0  0  0  0
    5.7209    3.2999    0.0000 C   0  0  0  0  0  0  0  0  0  0  0  0
    5.0065    2.0624    0.0000 C   0  0  0  0  0  0  0  0  0  0  0  0
    3.5775    2.0624    0.0000 C   0  0  0  0  0  0  0  0  0  0  0  0
    6.4354    3.7124    0.0000 C   0  0  0  0  0  0  0  0  0  0  0  0
    5.0065    1.2374    0.0000 C   0  0  0  0  0  0  0  0  0  0  0  0
    3.5775    1.2374    0.0000 C   0  0  0  0  0  0  0  0  0  0  0  0
    4.2920    0.8249    0.0000 C   0  0  0  0  0  0  0  0  0  0  0  0
    7.1499    3.2999    0.0000 C   0  0  0  0  0  0  0  0  0  0  0  0
    7.8644    3.7124    0.0000 C   0  0  0  0  0  0  0  0  0  0  0  0
    9.2933    3.7124    0.0000 C   0  0  0  0  0  0  0  0  0  0  0  0
    2.7555    4.5956    0.0000 H   0  0  0  0  0  0  0  0  0  0  0  0
  1 14  1  0
  1 18  1  0
  2 17  2  0
  3 19  2  0
  4 19  1  0
  5 22  2  0
  6 25  2  0
  7 31  1  0
  8 33  2  0
  9 14  1  0
  9 16  1  0
  9 17  1  0
 15 10  1  6
 10 22  1  0
 23 11  1  6
 11 25  1  0
 28 12  1  6
 13 33  1  0
 13 34  1  0
 14 15  1  0
 14 35  1  1
 15 17  1  0
 16 18  1  0
 16 19  1  1
 18 20  1  0
 18 21  1  0
 22 23  1  0
 23 24  1  0
 24 26  2  0
 24 27  1  0
 25 28  1  0
 26 29  1  0
 27 30  2  0
 28 32  1  0
 29 31  2  0
 30 31  1  0
 32 33  1  0
M  END

> <chembl_id>
CHEMBL1318150

> <chembl_pref_name>
ASPOXICILLIN

$$$$

     RDKit          2D

 26 28  0  0  0  0  0  0  0  0999 V2000
    0.1226    1.3788    0.0000 C   0  0  0  0  0  0  0  0  0  0  0  0
   -0.7024    1.3788    0.0000 C   0  0  0  0  0  0  0  0  0  0  0  0
   -0.7024    0.5538    0.0000 C   0  0  0  0  0  0  0  0  0  0  0  0
    0.1226    0.5538    0.0000 N   0  0  0  0  0  0  0  0  0  0  0  0
    0.9072    0.2989    0.0000 C   0  0  0  0  0  0  0  0  0  0  0  0
    1.3921    0.9663    0.0000 C   0  0  0  0  0  0  0  0  0  0  0  0
    0.9072    1.6337    0.0000 S   0  0  0  0  0  0  0  0  0  0  0  0
   -1.2858    1.9622    0.0000 N   0  0  0  0  0  0  0  0  0  0  0  0
   -1.2858   -0.0295    0.0000 O   0  0  0  0  0  0  0  0  0  0  0  0
    1.1621   -0.4857    0.0000 C   0  0  0  0  0  0  0  0  0  0  0  0
    1.9691   -0.6573    0.0000 O   0  0  0  0  0  0  0  0  0  0  0  0
    0.6100   -1.0988    0.0000 O   0  0  0  0  0  0  0  0  0  0  0  0
    1.9755    1.5497    0.0000 C   0  0  0  0  0  0  0  0  0  0  0  0
    2.1066    0.5538    0.0000 C   0  0  0  0  0  0  0  0  0  0  0  0
    0.1226    2.2038    0.0000 H   0  0  0  0  0  0  0  0  0  0  0  0
   -2.0827    1.7487    0.0000 C   0  0  0  0  0  0  0  0  0  0  0  0
   -2.6660    2.3320    0.0000 C   0  0  0  0  0  0  0  0  0  0  0  0
   -2.2962    0.9518    0.0000 O   0  0  0  0  0  0  0  0  0  0  0  0
   -3.4629    2.1185    0.0000 O   0  0  0  0  0  0  0  0  0  0  0  0
   -2.4525    3.1289    0.0000 C   0  0  0  0  0  0  0  0  0  0  0  0
   -4.0463    2.7019    0.0000 C   0  0  0  0  0  0  0  0  0  0  0  0
   -3.8327    3.4988    0.0000 C   0  0  0  0  0  0  0  0  0  0  0  0
   -4.4161    4.0822    0.0000 C   0  0  0  0  0  0  0  0  0  0  0  0
   -5.2130    3.8686    0.0000 C   0  0  0  0  0  0  0  0  0  0  0  0
   -5.4265    3.0717    0.0000 C   0  0  0  0  0  0  0  0  0  0  0  0
   -4.8432    2.4883    0.0000 C   0  0  0  0  0  0  0  0  0  0  0  0
  1  2  1  0
  2  3  1  0
  3  4  1  0
  4  5  1  0
  1  4  1  0
  1  7  1  0
  5  6  1  0
  6  7  1  0
  2  8  1  1
  3  9  2  0
  5 10  1  6
 10 11  1  0
 10 12  2  0
  6 13  1  0
  6 14  1  0
  1 15  1  6
  8 16  1  0
 16 17  1  0
 16 18  2  0
 17 19  1  0
 17 20  1  0
 19 21  1  0
 21 22  1  0
 21 26  2  0
 22 23  2  0
 23 24  1  0
 24 25  2  0
 25 26  1  0
M  END

> <chembl_id>
CHEMBL1614637

> <chembl_pref_name>
PHENETHICILLIN

$$$$

     RDKit          2D

 10 12  0  0  0  0  0  0  0  0999 V2000
    1.5542   -5.4792    0.0000 N   0  0  0  0  0  0  0  0  0  0  0  0
    2.7000   -5.4792    0.0000 N   0  0  0  0  0  0  0  0  0  0  0  0
    1.7042   -5.9750    0.0000 N   0  0  0  0  0  0  0  0  0  0  0  0
    2.1292   -4.5042    0.0000 N   0  0  0  0  0  0  0  0  0  0  0  0
    2.1292   -5.8292    0.0000 C   0  0  0  0  0  0  0  0  0  0  0  0
    1.1500   -6.1792    0.0000 C   0  0  0  0  0  0  0  0  0  0  0  0
    1.5542   -4.8375    0.0000 C   0  0  0  0  0  0  0  0  0  0  0  0
    2.3125   -6.2292    0.0000 C   0  0  0  0  0  0  0  0  0  0  0  0
    2.7000   -4.8375    0.0000 C   0  0  0  0  0  0  0  0  0  0  0  0
    1.7042   -4.9667    0.0000 C   0  0  0  0  0  0  0  0  0  0  0  0
  2  5  1  0
  3  6  1  0
  4  7  1  0
  5  1  1  0
  6  1  1  0
  7  1  1  0
  8  3  1  0
  9  4  1  0
 10  4  1  0
 10  3  1  0
  9  2  1  0
  8  2  1  0
M  END

> <chembl_id>
CHEMBL1201270

> <chembl_pref_name>
METHENAMINE

$$$$

     RDKit          2D

 29 31  0  0  1  0  0  0  0  0999 V2000
    1.4500   -6.7375    0.0000 N   0  0  0  0  0  0  0  0  0  0  0  0
    0.7417   -6.7375    0.0000 C   0  0  0  0  0  0  0  0  0  0  0  0
    1.4500   -6.0292    0.0000 C   0  0  0  0  0  0  0  0  0  0  0  0
    0.7417   -6.0292    0.0000 C   0  0  0  0  0  0  0  0  0  0  0  0
    2.0542   -7.0875    0.0000 C   0  0  0  0  0  0  0  0  0  0  0  0
    2.0625   -5.6792    0.0000 S   0  0  0  0  0  0  0  0  0  0  0  0
    2.6667   -6.7417    0.0000 C   0  0  0  0  0  0  0  0  0  0  0  0
    0.1250   -5.6750    0.0000 N   0  0  0  0  0  0  0  0  0  0  0  0
    2.0500   -7.7958    0.0000 C   0  0  0  0  0  0  0  0  0  0  0  0
    2.6708   -6.0375    0.0000 C   0  0  0  0  0  0  0  0  0  0  0  0
   -0.4917   -6.0292    0.0000 C   0  0  0  0  0  0  0  0  0  0  0  0
    0.2458   -7.2417    0.0000 O   0  0  0  0  0  0  0  0  0  0  0  0
    3.2750   -7.1000    0.0000 C   0  0  0  0  0  0  0  0  0  0  0  0
    4.5042   -7.1083    0.0000 C   0  0  0  0  0  0  0  0  0  0  0  0
    2.6583   -8.1542    0.0000 O   0  0  0  0  0  0  0  0  0  0  0  0
    1.4333   -8.1458    0.0000 O   0  0  0  0  0  0  0  0  0  0  0  0
   -3.5542   -4.9667    0.0000 N   0  0  0  0  0  0  0  0  0  0  0  0
    3.8917   -6.7500    0.0000 O   0  0  0  0  0  0  0  0  0  0  0  0
   -1.7167   -6.0292    0.0000 S   0  0  0  0  0  0  0  0  0  0  0  0
   -0.4917   -6.7375    0.0000 O   0  0  0  0  0  0  0  0  0  0  0  0
    4.5000   -7.8167    0.0000 O   0  0  0  0  0  0  0  0  0  0  0  0
   -1.1042   -5.6750    0.0000 C   0  0  0  0  0  0  0  0  0  0  0  0
   -2.3292   -5.6750    0.0000 C   0  0  0  0  0  0  0  0  0  0  0  0
   -2.3292   -4.9625    0.0000 C   0  0  0  0  0  0  0  0  0  0  0  0
   -2.9375   -6.0292    0.0000 C   0  0  0  0  0  0  0  0  0  0  0  0
   -3.5542   -5.6750    0.0000 C   0  0  0  0  0  0  0  0  0  0  0  0
   -2.9417   -4.6083    0.0000 C   0  0  0  0  0  0  0  0  0  0  0  0
    5.1208   -6.7583    0.0000 C   0  0  0  0  0  0  0  0  0  0  0  0
    1.4417   -5.3167    0.0000 H   0  0  0  0  0  0  0  0  0  0  0  0
  2  1  1  0
  3  1  1  0
  4  2  1  0
  5  1  1  0
  6  3  1  0
  7  5  2  0
  4  8  1  1
  9  5  1  0
 10  7  1  0
 11  8  1  0
 12  2  2  0
 13  7  1  0
 14 18  1  0
 15  9  1  0
 16  9  2  0
 17 26  1  0
 18 13  1  0
 19 22  1  0
 20 11  2  0
 21 14  2  0
 22 11  1  0
 23 19  1  0
 24 23  2  0
 25 23  1  0
 26 25  2  0
 27 24  1  0
 28 14  1  0
  3 29  1  6
  4  3  1  0
  6 10  1  0
 17 27  2  0
M  END

> <chembl_id>
CHEMBL1599

> <chembl_pref_name>
CEPHAPIRIN

$$$$

     RDKit          2D

 29 32  0  0  0  0  0  0  0  0999 V2000
   -0.2767    0.3516    0.0000 C   0  0  0  0  0  0  0  0  0  0  0  0
   -0.9911   -0.0609    0.0000 N   0  0  0  0  0  0  0  0  0  0  0  0
   -0.2767    1.1766    0.0000 C   0  0  0  0  0  0  0  0  0  0  0  0
   -1.7056    1.1766    0.0000 C   0  0  0  0  0  0  0  0  0  0  0  0
    0.4378   -0.0609    0.0000 N   0  0  0  0  0  0  0  0  0  0  0  0
   -0.9911    1.5891    0.0000 C   0  0  0  0  0  0  0  0  0  0  0  0
   -1.7056    0.3516    0.0000 C   0  0  0  0  0  0  0  0  0  0  0  0
    1.1523    0.3516    0.0000 C   0  0  0  0  0  0  0  0  0  0  0  0
    1.8668   -0.0609    0.0000 N   0  0  0  0  0  0  0  0  0  0  0  0
   -0.9911   -0.8859    0.0000 C   0  0  0  0  0  0  0  0  0  0  0  0
    0.4378    1.5891    0.0000 C   0  0  0  0  0  0  0  0  0  0  0  0
   -2.4201    1.5891    0.0000 C   0  0  0  0  0  0  0  0  0  0  0  0
    1.1523    1.1766    0.0000 C   0  0  0  0  0  0  0  0  0  0  0  0
   -0.2767   -1.2984    0.0000 C   0  0  0  0  0  0  0  0  0  0  0  0
   -0.2767   -2.1234    0.0000 C   0  0  0  0  0  0  0  0  0  0  0  0
   -1.7056   -1.2984    0.0000 C   0  0  0  0  0  0  0  0  0  0  0  0
    2.6204    0.2746    0.0000 C   0  0  0  0  0  0  0  0  0  0  0  0
    1.9530   -0.8814    0.0000 C   0  0  0  0  0  0  0  0  0  0  0  0
   -0.9911    2.4141    0.0000 O   0  0  0  0  0  0  0  0  0  0  0  0
   -3.1345    1.1766    0.0000 O   0  0  0  0  0  0  0  0  0  0  0  0
    2.7600   -1.0529    0.0000 C   0  0  0  0  0  0  0  0  0  0  0  0
   -0.9911   -2.5359    0.0000 C   0  0  0  0  0  0  0  0  0  0  0  0
    1.8668    1.5891    0.0000 F   0  0  0  0  0  0  0  0  0  0  0  0
    0.4378   -0.8859    0.0000 F   0  0  0  0  0  0  0  0  0  0  0  0
    3.1725   -0.3385    0.0000 C   0  0  0  0  0  0  0  0  0  0  0  0
   -2.4201    2.4141    0.0000 O   0  0  0  0  0  0  0  0  0  0  0  0
   -1.7056   -2.1234    0.0000 C   0  0  0  0  0  0  0  0  0  0  0  0
    3.9929   -0.2522    0.0000 N   0  0  0  0  0  0  0  0  0  0  0  0
   -0.9911   -3.3609    0.0000 F   0  0  0  0  0  0  0  0  0  0  0  0
  1  2  1  0
  1  3  2  0
  1  5  1  0
  3  6  1  0
  4  6  1  0
  2  7  1  0
  4  7  2  0
  5  8  2  0
  8  9  1  0
  2 10  1  0
  3 11  1  0
  4 12  1  0
  8 13  1  0
 11 13  2  0
 10 14  1  0
 14 15  2  0
 10 16  2  0
  9 17  1  0
  9 18  1  0
  6 19  2  0
 12 20  2  0
 18 21  1  0
 15 22  1  0
 13 23  1  0
 14 24  1  0
 17 25  1  0
 21 25  1  0
 12 26  1  0
 16 27  1  0
 22 27  2  0
 25 28  1  0
 22 29  1  0
M  END

> <chembl_id>
CHEMBL273348

> <chembl_pref_name>
TOSUFLOXACIN

$$$$

     RDKit          2D

 30 33  0  0  1  0  0  0  0  0999 V2000
    2.8333   -7.4583    0.0000 N   0  0  0  0  0  0  0  0  0  0  0  0
    2.8292   -6.7500    0.0000 C   0  0  0  0  0  0  0  0  0  0  0  0
    2.1250   -7.4625    0.0000 C   0  0  0  0  0  0  0  0  0  0  0  0
    2.1250   -6.7500    0.0000 C   0  0  0  0  0  0  0  0  0  0  0  0
    3.5083   -7.6750    0.0000 C   0  0  0  0  0  0  0  0  0  0  0  0
    3.5042   -6.5292    0.0000 S   0  0  0  0  0  0  0  0  0  0  0  0
    0.8875   -6.7500    0.0000 C   0  0  0  0  0  0  0  0  0  0  0  0
    3.9250   -7.1000    0.0000 C   0  0  0  0  0  0  0  0  0  0  0  0
    1.5042   -6.3917    0.0000 N   0  0  0  0  0  0  0  0  0  0  0  0
    0.2750   -6.3958    0.0000 C   0  0  0  0  0  0  0  0  0  0  0  0
    3.5042   -8.3792    0.0000 C   0  0  0  0  0  0  0  0  0  0  0  0
   -0.3333   -6.7500    0.0000 C   0  0  0  0  0  0  0  0  0  0  0  0
    1.6208   -7.9625    0.0000 O   0  0  0  0  0  0  0  0  0  0  0  0
    0.2792   -5.6833    0.0000 C   0  0  0  0  0  0  0  0  0  0  0  0
    0.8875   -7.4583    0.0000 O   0  0  0  0  0  0  0  0  0  0  0  0
    4.1125   -8.7417    0.0000 O   0  0  0  0  0  0  0  0  0  0  0  0
    2.8833   -8.7292    0.0000 O   0  0  0  0  0  0  0  0  0  0  0  0
   -0.9458   -6.3958    0.0000 C   0  0  0  0  0  0  0  0  0  0  0  0
   -0.3333   -5.3292    0.0000 C   0  0  0  0  0  0  0  0  0  0  0  0
   -0.9458   -5.6833    0.0000 C   0  0  0  0  0  0  0  0  0  0  0  0
    4.5375   -7.4542    0.0000 C   0  0  0  0  0  0  0  0  0  0  0  0
    4.5375   -6.7417    0.0000 C   0  0  0  0  0  0  0  0  0  0  0  0
    0.8958   -5.3333    0.0000 O   0  0  0  0  0  0  0  0  0  0  0  0
   -0.3292   -7.4500    0.0000 C   0  0  0  0  0  0  0  0  0  0  0  0
   -1.5542   -6.7500    0.0000 C   0  0  0  0  0  0  0  0  0  0  0  0
    1.5083   -5.6875    0.0000 C   0  0  0  0  0  0  0  0  0  0  0  0
   -0.9333   -7.8042    0.0000 C   0  0  0  0  0  0  0  0  0  0  0  0
    2.1208   -5.3375    0.0000 C   0  0  0  0  0  0  0  0  0  0  0  0
   -1.5500   -7.4583    0.0000 C   0  0  0  0  0  0  0  0  0  0  0  0
    2.8250   -6.0417    0.0000 H   0  0  0  0  0  0  0  0  0  0  0  0
  2  1  1  0
  3  1  1  0
  4  3  1  0
  5  1  1  0
  6  2  1  0
  7  9  1  0
  8  5  1  0
  4  9  1  1
 10  7  1  0
  5 11  1  6
 12 10  1  0
 13  3  2  0
 14 10  2  0
 15  7  2  0
 16 11  1  0
 17 11  2  0
 18 12  1  0
 19 14  1  0
 20 18  1  0
 21  8  1  0
 22  8  1  0
 23 14  1  0
 24 12  2  0
 25 18  2  0
 26 23  1  0
 27 24  1  0
 28 26  1  0
 29 27  2  0
  2 30  1  6
  6  8  1  0
  4  2  1  0
 20 19  2  0
 29 25  1  0
M  END

> <chembl_id>
CHEMBL1443

> <chembl_pref_name>
NAFCILLIN

$$$$

     RDKit          2D

 40 42  0  0  1  0  0  0  0  0999 V2000
    9.6035   -2.6170    0.0000 O   0  0  0  0  0  0  0  0  0  0  0  0
   10.0362   -3.3187    0.0000 C   0  0  0  0  0  0  0  0  0  0  0  0
   10.8676   -3.3090    0.0000 C   0  0  0  0  0  0  0  0  0  0  0  0
    9.6493   -4.0492    0.0000 C   0  0  0  0  0  0  0  0  0  0  0  0
   11.3004   -4.0108    0.0000 C   0  0  0  0  0  0  0  0  0  0  0  0
   11.2572   -2.5771    0.0000 N   0  0  0  0  0  0  0  0  0  0  0  0
   10.0820   -4.7509    0.0000 C   0  0  0  0  0  0  0  0  0  0  0  0
    8.9342   -4.1576    0.0000 O   0  0  0  0  0  0  0  0  0  0  0  0
   10.9037   -4.7435    0.0000 C   0  0  0  0  0  0  0  0  0  0  0  0
   12.0568   -3.9991    0.0000 O   0  0  0  0  0  0  0  0  0  0  0  0
   10.8060   -1.9390    0.0000 C   0  0  0  0  0  0  0  0  0  0  0  0
    9.6855   -5.4837    0.0000 O   0  0  0  0  0  0  0  0  0  0  0  0
   11.3371   -5.4449    0.0000 N   0  0  0  0  0  0  0  0  0  0  0  0
    9.9329   -1.9392    0.0000 N   0  0  0  0  0  0  0  0  0  0  0  0
   11.0880   -1.1877    0.0000 N   0  0  0  0  0  0  0  0  0  0  0  0
   12.1805   -5.4352    0.0000 C   0  0  0  0  0  0  0  0  0  0  0  0
   12.5253   -4.7817    0.0000 N   0  0  0  0  0  0  0  0  0  0  0  0
   12.6209   -6.1523    0.0000 N   0  0  0  0  0  0  0  0  0  0  0  0
    8.1542   -2.9611    0.0000 C   0  0  0  0  0  0  0  0  0  0  0  0
    8.7964   -2.4234    0.0000 C   0  0  0  0  0  0  0  0  0  0  0  0
    7.4554   -2.5225    0.0000 C   0  0  0  0  0  0  0  0  0  0  0  0
    8.1899   -3.7804    0.0000 O   0  0  0  0  0  0  0  0  0  0  0  0
    8.4757   -1.6773    0.0000 O   0  0  0  0  0  0  0  0  0  0  0  0
    7.6627   -1.7209    0.0000 C   0  0  0  0  0  0  0  0  0  0  0  0
    6.7760   -2.9997    0.0000 O   0  0  0  0  0  0  0  0  0  0  0  0
    7.4726   -4.1783    0.0000 C   0  0  0  0  0  0  0  0  0  0  0  0
    7.4328   -5.0004    0.0000 C   0  0  0  0  0  0  0  0  0  0  0  0
    6.7738   -3.7397    0.0000 O   0  0  0  0  0  0  0  0  0  0  0  0
    6.7137   -5.4012    0.0000 C   0  0  0  0  0  0  0  0  0  0  0  0
    8.1297   -5.4418    0.0000 N   0  0  0  0  0  0  0  0  0  0  0  0
    6.0353   -4.1234    0.0000 C   0  0  0  0  0  0  0  0  0  0  0  0
    6.0735   -4.9560    0.0000 C   0  0  0  0  0  0  0  0  0  0  0  0
    6.6635   -6.2162    0.0000 O   0  0  0  0  0  0  0  0  0  0  0  0
    8.1120   -6.3908    0.0000 C   0  0  0  0  0  0  0  0  0  0  0  0
    5.3764   -3.6886    0.0000 C   0  0  0  0  0  0  0  0  0  0  0  0
    5.2755   -5.3419    0.0000 O   0  0  0  0  0  0  0  0  0  0  0  0
    4.6867   -4.1942    0.0000 O   0  0  0  0  0  0  0  0  0  0  0  0
    6.7688   -2.0667    0.0000 C   0  0  0  0  0  0  0  0  0  0  0  0
    6.0286   -2.4348    0.0000 O   0  0  0  0  0  0  0  0  0  0  0  0
    7.2940   -0.8577    0.0000 C   0  0  0  0  0  0  0  0  0  0  0  0
  2  4  1  0
  3  5  1  0
  3  6  1  1
  4  7  1  0
  4  8  1  1
  5  9  1  0
  5 10  1  6
  6 11  2  0
  7 12  1  6
  9 13  1  1
 11 14  1  0
 11 15  1  0
 13 16  2  0
 16 17  1  0
 16 18  1  0
  7  9  1  0
  2  1  1  6
 21 25  1  0
 26 22  1  1
 26 27  1  0
 26 28  1  0
 27 29  1  0
 27 30  1  1
 28 31  1  0
 29 32  1  0
 29 33  1  6
 30 34  1  0
 31 35  1  6
 32 36  1  1
 35 37  1  0
 23 24  1  0
 31 32  1  0
 19 20  1  0
 19 21  1  0
 19 22  1  6
 21 38  1  1
 20 23  1  0
 38 39  2  0
 21 24  1  0
 20  1  1  1
  2  3  1  0
 24 40  1  6
M  END

> <chembl_id>
CHEMBL372795

> <chembl_pref_name>
STREPTOMYCIN

$$$$

     RDKit          2D

 34 37  0  0  0  0  0  0  0  0999 V2000
    4.1371   -5.8940    0.0000 C   0  0  0  0  0  0  0  0  0  0  0  0
    4.1358   -6.7216    0.0000 C   0  0  0  0  0  0  0  0  0  0  0  0
    4.8488   -7.1344    0.0000 C   0  0  0  0  0  0  0  0  0  0  0  0
    4.8468   -5.4812    0.0000 C   0  0  0  0  0  0  0  0  0  0  0  0
    5.5649   -5.8900    0.0000 C   0  0  0  0  0  0  0  0  0  0  0  0
    5.5637   -6.7187    0.0000 C   0  0  0  0  0  0  0  0  0  0  0  0
    6.2745   -7.1318    0.0000 C   0  0  0  0  0  0  0  0  0  0  0  0
    6.2771   -5.4741    0.0000 C   0  0  0  0  0  0  0  0  0  0  0  0
    6.9931   -5.8922    0.0000 C   0  0  0  0  0  0  0  0  0  0  0  0
    6.9937   -6.7187    0.0000 C   0  0  0  0  0  0  0  0  0  0  0  0
    7.7016   -7.1329    0.0000 C   0  0  0  0  0  0  0  0  0  0  0  0
    7.7091   -5.4796    0.0000 C   0  0  0  0  0  0  0  0  0  0  0  0
    8.4218   -5.8988    0.0000 C   0  0  0  0  0  0  0  0  0  0  0  0
    8.4144   -6.7233    0.0000 C   0  0  0  0  0  0  0  0  0  0  0  0
    9.1234   -7.1395    0.0000 C   0  0  0  0  0  0  0  0  0  0  0  0
    9.8399   -6.7314    0.0000 C   0  0  0  0  0  0  0  0  0  0  0  0
    9.8472   -5.9068    0.0000 C   0  0  0  0  0  0  0  0  0  0  0  0
    9.1380   -5.4903    0.0000 C   0  0  0  0  0  0  0  0  0  0  0  0
    4.8505   -7.9594    0.0000 O   0  0  0  0  0  0  0  0  0  0  0  0
    6.2736   -7.9567    0.0000 O   0  0  0  0  0  0  0  0  0  0  0  0
    8.4148   -5.0736    0.0000 H   0  0  0  0  0  0  0  0  0  0  0  0
    8.4103   -7.5439    0.0000 O   0  0  0  0  0  0  0  0  0  0  0  0
    9.1441   -4.6653    0.0000 N   0  0  0  0  0  0  0  0  0  0  0  0
    9.8596   -4.2535    0.0000 C   0  0  0  0  0  0  0  0  0  0  0  0
    8.4300   -4.2475    0.0000 C   0  0  0  0  0  0  0  0  0  0  0  0
   10.5684   -5.5015    0.0000 O   0  0  0  0  0  0  0  0  0  0  0  0
   10.5527   -7.1513    0.0000 C   0  0  0  0  0  0  0  0  0  0  0  0
   10.5441   -7.9763    0.0000 O   0  0  0  0  0  0  0  0  0  0  0  0
   11.2695   -6.7463    0.0000 N   0  0  0  0  0  0  0  0  0  0  0  0
    5.5595   -5.0599    0.0000 O   0  0  0  0  0  0  0  0  0  0  0  0
    7.6983   -7.9578    0.0000 O   0  0  0  0  0  0  0  0  0  0  0  0
    9.1147   -7.9644    0.0000 O   0  0  0  0  0  0  0  0  0  0  0  0
    7.2048   -5.0874    0.0000 H   0  0  0  0  0  0  0  0  0  0  0  0
    6.4852   -4.6749    0.0000 C   0  0  0  0  0  0  0  0  0  0  0  0
 13 18  1  0
 14 15  1  0
 15 16  1  0
 16 17  2  0
 17 18  1  0
  9  8  1  0
  3 19  1  0
  9 10  1  0
  7 20  2  0
  5  4  1  0
 13 21  1  6
  4  1  2  0
 14 22  1  6
  5  6  2  0
 18 23  1  6
 23 24  1  0
  9 12  1  0
 23 25  1  0
 10 11  2  0
 17 26  1  0
 11 14  1  0
 16 27  1  0
 13 12  1  0
 27 28  2  0
 13 14  1  0
 27 29  1  0
  2  3  2  0
  8 30  1  1
  3  6  1  0
 11 31  1  0
  1  2  1  0
 15 32  2  0
  5  8  1  0
  9 33  1  6
  6  7  1  0
  8 34  1  0
  7 10  1  0
M  END

> <chembl_id>
CHEMBL1440

> <chembl_pref_name>
TETRACYCLINE

$$$$

     RDKit          2D

 23 26  0  0  0  0  0  0  0  0999 V2000
    0.8661   -6.7994    0.0000 C   0  0  0  0  0  0  0  0  0  0  0  0
    1.2824   -7.5155    0.0000 C   0  0  0  0  0  0  0  0  0  0  0  0
    1.6945   -6.7970    0.0000 C   0  0  0  0  0  0  0  0  0  0  0  0
    1.9972   -7.9278    0.0000 C   0  0  0  0  0  0  0  0  0  0  0  0
    1.9960   -8.7546    0.0000 C   0  0  0  0  0  0  0  0  0  0  0  0
    2.7103   -9.1671    0.0000 C   0  0  0  0  0  0  0  0  0  0  0  0
    3.4222   -8.7520    0.0000 C   0  0  0  0  0  0  0  0  0  0  0  0
    4.1347   -9.1647    0.0000 C   0  0  0  0  0  0  0  0  0  0  0  0
    4.8529   -8.7541    0.0000 C   0  0  0  0  0  0  0  0  0  0  0  0
    4.8540   -7.9262    0.0000 C   0  0  0  0  0  0  0  0  0  0  0  0
    2.7085   -7.5152    0.0000 C   0  0  0  0  0  0  0  0  0  0  0  0
    3.4225   -7.9247    0.0000 C   0  0  0  0  0  0  0  0  0  0  0  0
    4.1301   -7.5132    0.0000 N   0  0  0  0  0  0  0  0  0  0  0  0
    4.1299   -6.6908    0.0000 C   0  0  0  0  0  0  0  0  0  0  0  0
    3.4159   -6.2815    0.0000 C   0  0  0  0  0  0  0  0  0  0  0  0
    2.7021   -6.6945    0.0000 O   0  0  0  0  0  0  0  0  0  0  0  0
    4.8431   -6.2775    0.0000 C   0  0  0  0  0  0  0  0  0  0  0  0
    0.5692   -7.9281    0.0000 N   0  0  0  0  0  0  0  0  0  0  0  0
    4.1324   -9.9891    0.0000 O   0  0  0  0  0  0  0  0  0  0  0  0
    1.2817   -9.1662    0.0000 F   0  0  0  0  0  0  0  0  0  0  0  0
    5.5685   -9.1701    0.0000 C   0  0  0  0  0  0  0  0  0  0  0  0
    5.5662   -9.9945    0.0000 O   0  0  0  0  0  0  0  0  0  0  0  0
    6.2837   -8.7599    0.0000 O   0  0  0  0  0  0  0  0  0  0  0  0
 11 12  2  0
  2  1  1  0
  5  6  1  0
  6  7  2  0
 11  4  1  0
 12  7  1  0
  3  2  1  0
 11 16  1  0
 12 13  1  0
 13 14  1  0
 14 15  1  0
 15 16  1  0
  1  3  1  0
 14 17  1  6
  4  2  1  0
  2 18  1  0
  4  5  2  0
  8 19  2  0
  7  8  1  0
  5 20  1  0
  8  9  1  0
  9 10  2  0
 10 13  1  0
 21 22  1  0
 21 23  2  0
  9 21  1  0
M  END

> <chembl_id>
CHEMBL240163

> <chembl_pref_name>
PAZUFLOXACIN

$$$$

     RDKit          2D

 31 33  0  0  0  0  0  0  0  0999 V2000
   -1.2893   -3.8913    0.0000 C   0  0  0  0  0  0  0  0  0  0  0  0
   -1.2893   -4.7163    0.0000 C   0  0  0  0  0  0  0  0  0  0  0  0
   -0.4643   -3.8913    0.0000 C   0  0  0  0  0  0  0  0  0  0  0  0
   -0.4598   -4.7163    0.0000 N   0  0  0  0  0  0  0  0  0  0  0  0
    0.3262   -4.9670    0.0000 C   0  0  0  0  0  0  0  0  0  0  0  0
    0.8075   -4.2969    0.0000 C   0  0  0  0  0  0  0  0  0  0  0  0
    0.3189   -3.6322    0.0000 S   0  0  0  0  0  0  0  0  0  0  0  0
   -1.8727   -5.2997    0.0000 O   0  0  0  0  0  0  0  0  0  0  0  0
   -0.5956   -3.0768    0.0000 H   0  0  0  0  0  0  0  0  0  0  0  0
    0.5854   -5.7502    0.0000 C   0  0  0  0  0  0  0  0  0  0  0  0
    1.4175   -3.7414    0.0000 C   0  0  0  0  0  0  0  0  0  0  0  0
    1.4236   -4.8455    0.0000 C   0  0  0  0  0  0  0  0  0  0  0  0
   -1.8727   -3.3079    0.0000 N   0  0  0  0  0  0  0  0  0  0  0  0
   -2.6696   -3.5215    0.0000 C   0  0  0  0  0  0  0  0  0  0  0  0
   -3.2530   -2.9381    0.0000 N   0  0  0  0  0  0  0  0  0  0  0  0
   -4.0323   -3.2105    0.0000 C   0  0  0  0  0  0  0  0  0  0  0  0
   -4.7334   -2.7721    0.0000 C   0  0  0  0  0  0  0  0  0  0  0  0
   -2.9829   -2.1600    0.0000 C   0  0  0  0  0  0  0  0  0  0  0  0
   -4.8305   -1.9541    0.0000 C   0  0  0  0  0  0  0  0  0  0  0  0
   -3.4260   -1.4606    0.0000 C   0  0  0  0  0  0  0  0  0  0  0  0
   -4.2472   -1.3723    0.0000 C   0  0  0  0  0  0  0  0  0  0  0  0
    0.0020   -6.3336    0.0000 O   0  0  0  0  0  0  0  0  0  0  0  0
    1.3822   -5.9637    0.0000 O   0  0  0  0  0  0  0  0  0  0  0  0
    1.5958   -6.7606    0.0000 C   0  0  0  0  0  0  0  0  0  0  0  0
    2.3927   -6.9741    0.0000 O   0  0  0  0  0  0  0  0  0  0  0  0
    2.6062   -7.7710    0.0000 C   0  0  0  0  0  0  0  0  0  0  0  0
    3.4031   -7.9845    0.0000 C   0  0  0  0  0  0  0  0  0  0  0  0
    3.6166   -8.7814    0.0000 C   0  0  0  0  0  0  0  0  0  0  0  0
    3.4750   -7.1627    0.0000 C   0  0  0  0  0  0  0  0  0  0  0  0
    4.2249   -7.9126    0.0000 C   0  0  0  0  0  0  0  0  0  0  0  0
    2.0228   -8.3544    0.0000 O   0  0  0  0  0  0  0  0  0  0  0  0
  1  2  1  0
  2  4  1  0
  3  1  1  0
  3  4  1  0
  4  5  1  0
  5  6  1  0
  6  7  1  0
  7  3  1  0
  2  8  2  0
  3  9  1  6
  5 10  1  6
  6 11  1  0
  6 12  1  0
  1 13  1  1
 13 14  2  0
 14 15  1  0
 15 16  1  0
 16 17  1  0
 15 18  1  0
 17 19  1  0
 18 20  1  0
 19 21  1  0
 20 21  1  0
 10 22  2  0
 10 23  1  0
 23 24  1  0
 24 25  1  0
 25 26  1  0
 26 27  1  0
 27 28  1  0
 27 29  1  0
 27 30  1  0
 26 31  2  0
M  END

> <chembl_id>
CHEMBL1650818

> <chembl_pref_name>
AMDINOCILLIN PIVOXIL

$$$$

     RDKit          2D

 20 20  0  0  0  0  0  0  0  0999 V2000
    6.2916   -7.7874    0.0000 N   0  0  0  0  0  0  0  0  0  0  0  0
   11.2916   -6.5291    0.0000 C   0  0  0  0  0  0  0  0  0  0  0  0
   10.5749   -6.1249    0.0000 N   0  0  0  0  0  0  0  0  0  0  0  0
    9.8624   -6.5374    0.0000 C   0  0  0  0  0  0  0  0  0  0  0  0
    7.0041   -7.3749    0.0000 C   0  0  0  0  0  0  0  0  0  0  0  0
   11.9999   -6.1166    0.0000 C   0  0  0  0  0  0  0  0  0  0  0  0
    5.5791   -7.3749    0.0000 O   0  0  0  0  0  0  0  0  0  0  0  0
    9.1415   -6.1291    0.0000 C   0  0  0  0  0  0  0  0  0  0  0  0
    6.2916   -8.6124    0.0000 O   0  0  0  0  0  0  0  0  0  0  0  0
    8.4374   -6.5415    0.0000 C   0  0  0  0  0  0  0  0  0  0  0  0
   11.2916   -7.3541    0.0000 O   0  0  0  0  0  0  0  0  0  0  0  0
    7.0041   -6.5499    0.0000 C   0  0  0  0  0  0  0  0  0  0  0  0
    7.7166   -7.7874    0.0000 C   0  0  0  0  0  0  0  0  0  0  0  0
    7.7166   -6.1374    0.0000 C   0  0  0  0  0  0  0  0  0  0  0  0
    8.4416   -7.3749    0.0000 C   0  0  0  0  0  0  0  0  0  0  0  0
   12.7165   -6.5249    0.0000 Cl  0  0  0  0  0  0  0  0  0  0  0  0
   11.9916   -5.2916    0.0000 Cl  0  0  0  0  0  0  0  0  0  0  0  0
    9.1415   -5.3041    0.0000 O   0  0  0  0  0  0  0  0  0  0  0  0
    9.8666   -7.3624    0.0000 C   0  0  0  0  0  0  0  0  0  0  0  0
    9.1540   -7.7790    0.0000 O   0  0  0  0  0  0  0  0  0  0  0  0
  2  3  1  0
  3  4  1  0
  4  8  1  0
  5  1  1  0
  6  2  1  0
  7  1  1  0
  8 10  1  0
  9  1  2  0
 10 15  1  0
 11  2  2  0
 12  5  2  0
 13  5  1  0
 14 12  1  0
 15 13  2  0
 16  6  1  0
 17  6  1  0
  8 18  1  1
  4 19  1  6
 20 19  1  0
 14 10  2  0
M  CHG  2   1   1   7  -1
M  END

> <chembl_id>
CHEMBL130

> <chembl_pref_name>
CHLORAMPHENICOL

$$$$

     RDKit          2D

 17 18  0  0  0  0  0  0  0  0999 V2000
    3.6387   -0.8963    0.0000 C   0  0  0  0  0  0  0  0  0  0  0  0
    2.6003   -1.4977    0.0000 C   0  0  0  0  0  0  0  0  0  0  0  0
    1.2990   -0.7500    0.0000 N   0  0  0  0  0  0  0  0  0  0  0  0
    1.2990    0.7500    0.0000 C   0  0  0  0  0  0  0  0  0  0  0  0
    0.0000    1.5000    0.0000 C   0  0  0  0  0  0  0  0  0  0  0  0
    0.0031    3.0008    0.0000 C   0  0  0  0  0  0  0  0  0  0  0  0
    1.0432    3.5994    0.0000 O   0  0  0  0  0  0  0  0  0  0  0  0
   -1.0351    3.6026    0.0000 O   0  0  0  0  0  0  0  0  0  0  0  0
   -1.2990    0.7500    0.0000 C   0  0  0  0  0  0  0  0  0  0  0  0
   -2.3383    1.3500    0.0000 O   0  0  0  0  0  0  0  0  0  0  0  0
   -1.2990   -0.7500    0.0000 C   0  0  0  0  0  0  0  0  0  0  0  0
   -2.5981   -1.5000    0.0000 C   0  0  0  0  0  0  0  0  0  0  0  0
   -2.5981   -3.0000    0.0000 C   0  0  0  0  0  0  0  0  0  0  0  0
   -1.2990   -3.7500    0.0000 C   0  0  0  0  0  0  0  0  0  0  0  0
   -1.2990   -4.9500    0.0000 C   0  0  0  0  0  0  0  0  0  0  0  0
    0.0000   -3.0000    0.0000 N   0  0  0  0  0  0  0  0  0  0  0  0
    0.0000   -1.5000    0.0000 C   0  0  0  0  0  0  0  0  0  0  0  0
  1  2  1  0
  2  3  1  0
  3  4  1  0
  4  5  2  0
  5  6  1  0
  6  7  2  0
  6  8  1  0
  5  9  1  0
  9 10  2  0
  9 11  1  0
 11 12  2  0
 12 13  1  0
 13 14  2  0
 14 15  1  0
 14 16  1  0
 16 17  2  0
 17  3  1  0
 17 11  1  0
M  END

> <chembl_id>
CHEMBL5

> <chembl_pref_name>
NALIDIXIC ACID

$$$$

     RDKit          2D

 38 41  0  0  0  0  0  0  0  0999 V2000
   -3.1373    0.1149    0.0000 C   0  0  0  0  0  0  0  0  0  0  0  0
   -2.4229    0.5274    0.0000 C   0  0  0  0  0  0  0  0  0  0  0  0
   -3.1373   -0.7101    0.0000 C   0  0  0  0  0  0  0  0  0  0  0  0
   -2.4229   -1.1226    0.0000 C   0  0  0  0  0  0  0  0  0  0  0  0
   -2.4229   -1.9476    0.0000 O   0  0  0  0  0  0  0  0  0  0  0  0
   -1.7084   -0.7101    0.0000 C   0  0  0  0  0  0  0  0  0  0  0  0
   -0.9939   -1.9476    0.0000 O   0  0  0  0  0  0  0  0  0  0  0  0
   -0.9939   -1.1226    0.0000 C   0  0  0  0  0  0  0  0  0  0  0  0
   -0.2794   -0.7101    0.0000 C   0  0  0  0  0  0  0  0  0  0  0  0
    0.4350   -1.1226    0.0000 C   0  0  0  0  0  0  0  0  0  0  0  0
    0.4350   -1.9476    0.0000 O   0  0  0  0  0  0  0  0  0  0  0  0
    1.1495   -0.7101    0.0000 C   0  0  0  0  0  0  0  0  0  0  0  0
    1.8640   -1.1226    0.0000 C   0  0  0  0  0  0  0  0  0  0  0  0
    3.2929   -1.1226    0.0000 C   0  0  0  0  0  0  0  0  0  0  0  0
    4.0074   -0.7101    0.0000 O   0  0  0  0  0  0  0  0  0  0  0  0
    3.2929   -1.9476    0.0000 N   0  0  0  0  0  0  0  0  0  0  0  0
    2.5784   -0.7101    0.0000 C   0  0  0  0  0  0  0  0  0  0  0  0
    3.2929    0.5274    0.0000 O   0  0  0  0  0  0  0  0  0  0  0  0
    2.5784    0.1149    0.0000 C   0  0  0  0  0  0  0  0  0  0  0  0
    1.1495    0.1149    0.0000 C   0  0  0  0  0  0  0  0  0  0  0  0
    0.8673    0.8902    0.0000 H   0  0  0  0  0  0  0  0  0  0  0  0
   -0.2794    0.1149    0.0000 C   0  0  0  0  0  0  0  0  0  0  0  0
   -0.2794    0.9399    0.0000 H   0  0  0  0  0  0  0  0  0  0  0  0
   -0.9939    0.5274    0.0000 C   0  0  0  0  0  0  0  0  0  0  0  0
   -1.7084    0.1149    0.0000 C   0  0  0  0  0  0  0  0  0  0  0  0
   -2.4229    1.3524    0.0000 C   0  0  0  0  0  0  0  0  0  0  0  0
   -3.1373    1.7649    0.0000 N   0  0  0  0  0  0  0  0  0  0  0  0
    0.4350    0.5274    0.0000 C   0  0  0  0  0  0  0  0  0  0  0  0
    1.8640    0.5274    0.0000 C   0  0  0  0  0  0  0  0  0  0  0  0
    2.5784    1.7649    0.0000 C   0  0  0  0  0  0  0  0  0  0  0  0
    1.8640    1.3524    0.0000 N   0  0  0  0  0  0  0  0  0  0  0  0
   -3.8518    1.3524    0.0000 C   0  0  0  0  0  0  0  0  0  0  0  0
    1.1495    1.7649    0.0000 C   0  0  0  0  0  0  0  0  0  0  0  0
   -3.8518    3.0024    0.0000 C   0  0  0  0  0  0  0  0  0  0  0  0
   -3.1373    2.5899    0.0000 O   0  0  0  0  0  0  0  0  0  0  0  0
    1.3337    1.1594    0.0000 H   0  0  0  0  0  0  0  0  0  0  0  0
    1.8640   -1.9476    0.0000 O   0  0  0  0  0  0  0  0  0  0  0  0
    1.1495   -1.5351    0.0000 O   0  0  0  0  0  0  0  0  0  0  0  0
  1  2  2  0
  1  3  1  0
  2 25  1  0
  2 26  1  0
  3  4  2  0
  4  5  1  0
  6  4  1  0
  6  8  1  0
  7  8  2  0
  8  9  1  0
  9 10  2  0
 10 11  1  0
 10 12  1  0
 12 20  1  0
 13 12  1  0
 14 15  2  0
 16 14  1  0
 17 14  1  0
 17 13  1  0
 18 19  1  0
 19 17  2  0
 20 21  1  6
 20 29  1  0
 22 23  1  6
 22 24  1  0
 22  9  1  0
 22 28  1  0
 24 25  1  0
 25  6  2  0
 26 27  1  0
 27 32  1  0
 28 20  1  0
 29 19  1  0
 29 36  1  1
 29 31  1  6
 30 31  1  0
 31 33  1  0
 34 35  1  0
 35 27  1  0
 13 37  2  0
 12 38  1  6
M  END

> <chembl_id>
CHEMBL2364632

> <chembl_pref_name>
SARECYCLINE

$$$$

     RDKit          2D

 34 36  0  0  0  0  0  0  0  0999 V2000
   -0.9417   -5.1875    0.0000 C   0  0  0  0  0  0  0  0  0  0  0  0
    0.2292   -6.2708    0.0000 C   0  0  0  0  0  0  0  0  0  0  0  0
    0.2292   -7.4917    0.0000 C   0  0  0  0  0  0  0  0  0  0  0  0
   -1.2917   -5.7958    0.0000 C   0  0  0  0  0  0  0  0  0  0  0  0
   -0.1250   -6.8833    0.0000 C   0  0  0  0  0  0  0  0  0  0  0  0
   -2.0000   -5.7958    0.0000 C   0  0  0  0  0  0  0  0  0  0  0  0
   -1.2917   -4.5750    0.0000 O   0  0  0  0  0  0  0  0  0  0  0  0
   -0.1208   -5.6542    0.0000 O   0  0  0  0  0  0  0  0  0  0  0  0
   -0.7333   -8.4708    0.0000 C   0  0  0  0  0  0  0  0  0  0  0  0
   -2.3583   -5.1875    0.0000 C   0  0  0  0  0  0  0  0  0  0  0  0
   -0.1208   -8.1083    0.0000 O   0  0  0  0  0  0  0  0  0  0  0  0
   -1.0833   -7.8583    0.0000 O   0  0  0  0  0  0  0  0  0  0  0  0
   -2.0000   -4.5750    0.0000 C   0  0  0  0  0  0  0  0  0  0  0  0
    0.9417   -7.4917    0.0000 C   0  0  0  0  0  0  0  0  0  0  0  0
    0.9417   -6.2708    0.0000 C   0  0  0  0  0  0  0  0  0  0  0  0
    1.2917   -6.8833    0.0000 C   0  0  0  0  0  0  0  0  0  0  0  0
   -1.7958   -7.8583    0.0000 C   0  0  0  0  0  0  0  0  0  0  0  0
   -1.7958   -9.0792    0.0000 C   0  0  0  0  0  0  0  0  0  0  0  0
   -1.0833   -9.0792    0.0000 C   0  0  0  0  0  0  0  0  0  0  0  0
   -2.1500   -8.4708    0.0000 C   0  0  0  0  0  0  0  0  0  0  0  0
   -2.3542   -6.4125    0.0000 N   0  0  0  0  0  0  0  0  0  0  0  0
   -0.9375   -6.4125    0.0000 O   0  0  0  0  0  0  0  0  0  0  0  0
   -0.8333   -6.8833    0.0000 O   0  0  0  0  0  0  0  0  0  0  0  0
    1.2958   -5.6583    0.0000 N   0  0  0  0  0  0  0  0  0  0  0  0
    1.2917   -8.1083    0.0000 N   0  0  0  0  0  0  0  0  0  0  0  0
   -3.0667   -5.1875    0.0000 O   0  0  0  0  0  0  0  0  0  0  0  0
   -0.7333   -9.6958    0.0000 N   0  0  0  0  0  0  0  0  0  0  0  0
   -2.8583   -8.4708    0.0000 O   0  0  0  0  0  0  0  0  0  0  0  0
   -2.3542   -3.9583    0.0000 C   0  0  0  0  0  0  0  0  0  0  0  0
   -2.8542   -7.2417    0.0000 N   0  0  0  0  0  0  0  0  0  0  0  0
   -2.1458   -7.2417    0.0000 C   0  0  0  0  0  0  0  0  0  0  0  0
   -3.0625   -3.9583    0.0000 O   0  0  0  0  0  0  0  0  0  0  0  0
   -0.1208   -8.8250    0.0000 H   0  0  0  0  0  0  0  0  0  0  0  0
   -0.3333   -4.8292    0.0000 H   0  0  0  0  0  0  0  0  0  0  0  0
  2  8  1  1
  3  5  1  0
  4  1  1  0
  5  2  1  0
  6  4  1  0
  7  1  1  0
  8  1  1  0
  9 11  1  0
 10 13  1  0
  3 11  1  1
 12  9  1  0
 13  7  1  0
 14  3  1  0
 15  2  1  0
 16 15  1  0
 17 12  1  0
 18 19  1  0
 19  9  1  0
 20 17  1  0
  6 21  1  1
  4 22  1  6
  5 23  1  6
 15 24  1  6
 14 25  1  6
 10 26  1  6
 19 27  1  6
 20 28  1  6
 13 29  1  1
 30 31  1  0
 17 31  1  1
 32 29  1  0
  9 33  1  1
  1 34  1  1
 10  6  1  0
 16 14  1  0
 20 18  1  0
M  END

> <chembl_id>
CHEMBL1747

> <chembl_pref_name>
TOBRAMYCIN

$$$$

     RDKit          2D

103110  0  0  0  0  0  0  0  0999 V2000
   -3.4878    6.8141    0.0000 C   0  0  0  0  0  0  0  0  0  0  0  0
   -4.2023    6.4016    0.0000 C   0  0  0  0  0  0  0  0  0  0  0  0
   -4.2023    5.5766    0.0000 C   0  0  0  0  0  0  0  0  0  0  0  0
   -3.4878    5.1641    0.0000 C   0  0  0  0  0  0  0  0  0  0  0  0
   -2.7733    5.5766    0.0000 C   0  0  0  0  0  0  0  0  0  0  0  0
   -2.7733    6.4016    0.0000 C   0  0  0  0  0  0  0  0  0  0  0  0
   -3.4878    4.3391    0.0000 C   0  0  0  0  0  0  0  0  0  0  0  0
   -3.4878    7.6391    0.0000 N   0  0  0  0  0  0  0  0  0  0  0  0
   -2.7733    8.0516    0.0000 C   0  0  0  0  0  0  0  0  0  0  0  0
   -4.2023    8.0516    0.0000 C   0  0  0  0  0  0  0  0  0  0  0  0
   -2.7733    3.9266    0.0000 C   0  0  0  0  0  0  0  0  0  0  0  0
   -2.7733    3.1016    0.0000 C   0  0  0  0  0  0  0  0  0  0  0  0
   -2.0589    4.3391    0.0000 N   0  0  0  0  0  0  0  0  0  0  0  0
   -3.5702    2.8881    0.0000 N   0  0  0  0  0  0  0  0  0  0  0  0
   -3.5702    2.0631    0.0000 C   0  0  0  0  0  0  0  0  0  0  0  0
   -4.2847    1.6506    0.0000 C   0  0  0  0  0  0  0  0  0  0  0  0
   -2.8557    1.6506    0.0000 C   0  0  0  0  0  0  0  0  0  0  0  0
   -2.8557    0.8256    0.0000 O   0  0  0  0  0  0  0  0  0  0  0  0
   -2.1413    2.0631    0.0000 N   0  0  0  0  0  0  0  0  0  0  0  0
   -2.0589    2.6891    0.0000 O   0  0  0  0  0  0  0  0  0  0  0  0
   -1.4268    1.6506    0.0000 C   0  0  0  0  0  0  0  0  0  0  0  0
   -4.2847    3.3006    0.0000 C   0  0  0  0  0  0  0  0  0  0  0  0
   -4.9992    2.8882    0.0000 C   0  0  0  0  0  0  0  0  0  0  0  0
   -4.9992    2.0632    0.0000 C   0  0  0  0  0  0  0  0  0  0  0  0
   -5.7137    1.6507    0.0000 O   0  0  0  0  0  0  0  0  0  0  0  0
   -0.7123    2.0631    0.0000 C   0  0  0  0  0  0  0  0  0  0  0  0
   -1.4268    0.8256    0.0000 C   0  0  0  0  0  0  0  0  0  0  0  0
   -2.1413    0.4131    0.0000 C   0  0  0  0  0  0  0  0  0  0  0  0
   -2.1413   -0.4119    0.0000 C   0  0  0  0  0  0  0  0  0  0  0  0
   -1.4268   -0.8244    0.0000 C   0  0  0  0  0  0  0  0  0  0  0  0
   -0.7123   -0.4119    0.0000 C   0  0  0  0  0  0  0  0  0  0  0  0
   -0.7123    0.4131    0.0000 C   0  0  0  0  0  0  0  0  0  0  0  0
    0.0021    1.6506    0.0000 O   0  0  0  0  0  0  0  0  0  0  0  0
   -0.7123    2.8881    0.0000 O   0  0  0  0  0  0  0  0  0  0  0  0
    0.7166    2.0631    0.0000 C   0  0  0  0  0  0  0  0  0  0  0  0
    1.4311    1.6506    0.0000 C   0  0  0  0  0  0  0  0  0  0  0  0
    0.7166    2.8881    0.0000 C   0  0  0  0  0  0  0  0  0  0  0  0
    2.1456    2.0631    0.0000 C   0  0  0  0  0  0  0  0  0  0  0  0
    1.4311    0.8256    0.0000 N   0  0  0  0  0  0  0  0  0  0  0  0
    0.7166    0.4131    0.0000 C   0  0  0  0  0  0  0  0  0  0  0  0
    0.7166   -0.4119    0.0000 C   0  0  0  0  0  0  0  0  0  0  0  0
    0.0021    0.8256    0.0000 O   0  0  0  0  0  0  0  0  0  0  0  0
    0.0021   -0.8244    0.0000 N   0  0  0  0  0  0  0  0  0  0  0  0
    0.0021   -1.6494    0.0000 C   0  0  0  0  0  0  0  0  0  0  0  0
    0.7166   -2.0619    0.0000 C   0  0  0  0  0  0  0  0  0  0  0  0
    1.4311   -1.6494    0.0000 C   0  0  0  0  0  0  0  0  0  0  0  0
    1.4311   -0.8244    0.0000 C   0  0  0  0  0  0  0  0  0  0  0  0
    2.1456   -0.4119    0.0000 O   0  0  0  0  0  0  0  0  0  0  0  0
    2.8600    1.6506    0.0000 O   0  0  0  0  0  0  0  0  0  0  0  0
    2.1456    2.8881    0.0000 N   0  0  0  0  0  0  0  0  0  0  0  0
   -1.3444    3.9266    0.0000 C   0  0  0  0  0  0  0  0  0  0  0  0
   -2.0589    5.1641    0.0000 C   0  0  0  0  0  0  0  0  0  0  0  0
   -0.6299    4.3391    0.0000 C   0  0  0  0  0  0  0  0  0  0  0  0
   -1.3444    3.1016    0.0000 O   0  0  0  0  0  0  0  0  0  0  0  0
   -0.2174    5.6087    0.0000 C   0  0  0  0  0  0  0  0  0  0  0  0
   -0.8848    5.1237    0.0000 C   0  0  0  0  0  0  0  0  0  0  0  0
    0.1951    4.3391    0.0000 N   0  0  0  0  0  0  0  0  0  0  0  0
    0.4500    5.1237    0.0000 C   0  0  0  0  0  0  0  0  0  0  0  0
    0.9920    4.1256    0.0000 C   0  0  0  0  0  0  0  0  0  0  0  0
    1.4045    4.8401    0.0000 O   0  0  0  0  0  0  0  0  0  0  0  0
    1.7065    3.7131    0.0000 C   0  0  0  0  0  0  0  0  0  0  0  0
    2.2998    4.2863    0.0000 C   0  0  0  0  0  0  0  0  0  0  0  0
    3.0929    4.0591    0.0000 C   0  0  0  0  0  0  0  0  0  0  0  0
   -1.5635    4.6975    0.0000 H   0  0  0  0  0  0  0  0  0  0  0  0
   -3.5702    1.0631    0.0000 H   0  0  0  0  0  0  0  0  0  0  0  0
  -14.0569    4.7209    0.0000 C   0  0  0  0  0  0  0  0  0  0  0  0
  -13.3424    5.1334    0.0000 C   0  0  0  0  0  0  0  0  0  0  0  0
  -12.6279    4.7209    0.0000 C   0  0  0  0  0  0  0  0  0  0  0  0
  -11.9135    5.1334    0.0000 C   0  0  0  0  0  0  0  0  0  0  0  0
  -11.1990    4.7209    0.0000 C   0  0  0  0  0  0  0  0  0  0  0  0
  -10.5316    5.2058    0.0000 N   0  0  0  0  0  0  0  0  0  0  0  0
  -10.9441    3.9363    0.0000 O   0  0  0  0  0  0  0  0  0  0  0  0
  -10.1191    3.9363    0.0000 C   0  0  0  0  0  0  0  0  0  0  0  0
   -9.8641    4.7209    0.0000 C   0  0  0  0  0  0  0  0  0  0  0  0
   -9.0795    4.9758    0.0000 C   0  0  0  0  0  0  0  0  0  0  0  0
   -8.9080    5.7828    0.0000 O   0  0  0  0  0  0  0  0  0  0  0  0
   -8.4664    4.4237    0.0000 N   0  0  0  0  0  0  0  0  0  0  0  0
   -7.7990    4.9087    0.0000 C   0  0  0  0  0  0  0  0  0  0  0  0
   -8.2115    3.6392    0.0000 C   0  0  0  0  0  0  0  0  0  0  0  0
   -7.3865    3.6392    0.0000 C   0  0  0  0  0  0  0  0  0  0  0  0
   -7.1316    4.4237    0.0000 C   0  0  0  0  0  0  0  0  0  0  0  0
   -8.4250    2.8423    0.0000 C   0  0  0  0  0  0  0  0  0  0  0  0
   -7.8417    2.2589    0.0000 O   0  0  0  0  0  0  0  0  0  0  0  0
   -9.2219    2.6288    0.0000 O   0  0  0  0  0  0  0  0  0  0  0  0
   -9.2219    1.8038    0.0000 C   0  0  0  0  0  0  0  0  0  0  0  0
   -9.9364    1.3913    0.0000 C   0  0  0  0  0  0  0  0  0  0  0  0
   -8.5074    1.3913    0.0000 C   0  0  0  0  0  0  0  0  0  0  0  0
   -8.5074    0.5663    0.0000 C   0  0  0  0  0  0  0  0  0  0  0  0
   -7.7930    1.8038    0.0000 C   0  0  0  0  0  0  0  0  0  0  0  0
   -9.9364    0.5663    0.0000 C   0  0  0  0  0  0  0  0  0  0  0  0
  -10.6509    1.8038    0.0000 C   0  0  0  0  0  0  0  0  0  0  0  0
  -11.3653    1.3913    0.0000 C   0  0  0  0  0  0  0  0  0  0  0  0
  -12.0798    1.8038    0.0000 C   0  0  0  0  0  0  0  0  0  0  0  0
  -12.7943    1.3913    0.0000 N   0  0  0  0  0  0  0  0  0  0  0  0
  -12.0798    2.6288    0.0000 O   0  0  0  0  0  0  0  0  0  0  0  0
  -13.7201    1.6628    0.0000 C   0  0  0  0  0  0  0  0  0  0  0  0
  -14.0569    3.8959    0.0000 C   0  0  0  0  0  0  0  0  0  0  0  0
  -14.7713    3.4834    0.0000 C   0  0  0  0  0  0  0  0  0  0  0  0
  -14.7713    2.6584    0.0000 C   0  0  0  0  0  0  0  0  0  0  0  0
  -15.4858    3.8959    0.0000 C   0  0  0  0  0  0  0  0  0  0  0  0
  -13.9745    2.4448    0.0000 C   0  0  0  0  0  0  0  0  0  0  0  0
  -14.7713    5.1334    0.0000 O   0  0  0  0  0  0  0  0  0  0  0  0
  -12.6279    3.8959    0.0000 O   0  0  0  0  0  0  0  0  0  0  0  0
  1  2  1  0
  1  6  2  0
  2  3  2  0
  3  4  1  0
  4  5  2  0
  5  6  1  0
  4  7  1  0
  1  8  1  0
  8  9  1  0
  8 10  1  0
 11  7  1  6
 11 12  1  0
 11 13  1  0
 12 14  1  0
 15 17  1  0
 17 18  2  0
 17 19  1  0
 12 20  2  0
 19 21  1  0
 14 22  1  0
 15 14  1  0
 16 15  1  0
 24 16  1  0
 22 23  1  0
 23 24  1  0
 24 25  2  0
 21 26  1  0
 21 27  1  6
 27 28  1  0
 27 32  2  0
 28 29  2  0
 29 30  1  0
 30 31  2  0
 31 32  1  0
 26 33  1  0
 26 34  2  0
 33 35  1  0
 35 36  1  0
 35 37  1  6
 36 38  1  0
 36 39  1  1
 39 40  1  0
 40 41  1  0
 40 42  2  0
 41 43  1  0
 41 47  2  0
 43 44  2  0
 44 45  1  0
 45 46  2  0
 46 47  1  0
 47 48  1  0
 38 49  2  0
 38 50  1  0
 13 51  1  0
 13 52  1  0
 53 51  1  0
 51 54  2  0
 56 53  1  0
 53 57  1  0
 55 56  1  0
 57 58  1  0
 55 58  1  0
 57 59  1  0
 59 60  2  0
 59 61  1  0
 61 50  1  0
 61 62  1  1
 62 63  1  0
 53 64  1  1
 15 65  1  1
 66 67  1  0
 67 68  1  0
 68 69  1  0
 69 70  1  0
 71 70  2  0
 70 72  1  0
 72 73  1  0
 73 74  2  0
 71 74  1  0
 74 75  1  0
 75 76  2  0
 75 77  1  0
 78 77  1  0
 77 79  1  0
 79 80  2  0
 80 81  1  0
 78 81  1  0
 79 82  1  0
 82 83  2  0
 82 84  1  0
 84 85  1  0
 85 86  1  0
 85 87  1  6
 87 88  1  0
 87 89  1  0
 86 90  1  6
 86 91  1  0
 91 92  2  0
 92 93  1  0
 93 94  1  0
 93 95  2  0
 94 96  1  0
 66 97  1  0
 97 98  2  0
 98 99  1  0
 98100  1  0
 99101  2  0
101 96  1  0
 66102  1  1
 68103  2  0
M  END

> <chembl_id>
CHEMBL2146161

> <chembl_pref_name>
MIKAMYCIN

$$$$

     RDKit          2D

 36 40  0  0  1  0  0  0  0  0999 V2000
    1.1917   -1.8750    0.0000 N   0  0  0  0  0  0  0  0  0  0  0  0
    0.3542   -1.8750    0.0000 C   0  0  0  0  0  0  0  0  0  0  0  0
    0.3542   -1.1667    0.0000 C   0  0  0  0  0  0  0  0  0  0  0  0
    1.1917   -1.1542    0.0000 C   0  0  0  0  0  0  0  0  0  0  0  0
    2.4375   -1.8750    0.0000 C   0  0  0  0  0  0  0  0  0  0  0  0
    1.8125   -2.2542    0.0000 C   0  0  0  0  0  0  0  0  0  0  0  0
   -2.1333   -1.1750    0.0000 C   0  0  0  0  0  0  0  0  0  0  0  0
    3.5417   -1.8750    0.0000 N   0  0  0  0  0  0  0  0  0  0  0  0
   -1.5083   -0.8000    0.0000 C   0  0  0  0  0  0  0  0  0  0  0  0
   -2.3958   -1.8292    0.0000 N   0  0  0  0  0  0  0  0  0  0  0  0
   -0.2833   -0.8000    0.0000 N   0  0  0  0  0  0  0  0  0  0  0  0
   -0.9083   -1.1750    0.0000 C   0  0  0  0  0  0  0  0  0  0  0  0
    1.8125   -0.8375    0.0000 S   0  0  0  0  0  0  0  0  0  0  0  0
   -3.0875   -1.8292    0.0000 C   0  0  0  0  0  0  0  0  0  0  0  0
    3.0042   -2.1917    0.0000 C   0  0  0  0  0  0  0  0  0  0  0  0
    1.8042   -2.8875    0.0000 C   0  0  0  0  0  0  0  0  0  0  0  0
   -2.7333   -0.7500    0.0000 C   0  0  0  0  0  0  0  0  0  0  0  0
   -3.3208   -1.1667    0.0000 S   0  0  0  0  0  0  0  0  0  0  0  0
    4.2625   -2.2292    0.0000 C   0  0  0  0  0  0  0  0  0  0  0  0
    2.4375   -1.1750    0.0000 C   0  0  0  0  0  0  0  0  0  0  0  0
   -1.5083   -0.1292    0.0000 N   0  0  0  0  0  0  0  0  0  0  0  0
   -0.0958   -2.2667    0.0000 O   0  0  0  0  0  0  0  0  0  0  0  0
   -0.9083   -1.7375    0.0000 O   0  0  0  0  0  0  0  0  0  0  0  0
    2.4375   -3.2292    0.0000 O   0  0  0  0  0  0  0  0  0  0  0  0
    1.2417   -3.2542    0.0000 O   0  0  0  0  0  0  0  0  0  0  0  0
    4.8667   -1.8750    0.0000 C   0  0  0  0  0  0  0  0  0  0  0  0
   -3.5375   -2.2917    0.0000 N   0  0  0  0  0  0  0  0  0  0  0  0
    3.5417   -1.1542    0.0000 C   0  0  0  0  0  0  0  0  0  0  0  0
   -0.9000    0.2125    0.0000 O   0  0  0  0  0  0  0  0  0  0  0  0
    4.4750   -2.9542    0.0000 C   0  0  0  0  0  0  0  0  0  0  0  0
    4.2417   -0.8250    0.0000 C   0  0  0  0  0  0  0  0  0  0  0  0
    5.2500   -2.9542    0.0000 C   0  0  0  0  0  0  0  0  0  0  0  0
    4.8667   -1.1542    0.0000 C   0  0  0  0  0  0  0  0  0  0  0  0
    5.4375   -2.2292    0.0000 C   0  0  0  0  0  0  0  0  0  0  0  0
   -0.9000    1.0333    0.0000 C   0  0  0  0  0  0  0  0  0  0  0  0
    0.9508   -0.1837    0.0000 H   0  0  0  0  0  0  0  0  0  0  0  0
  2  1  1  0
  3  4  1  0
  4  1  1  0
  5  6  2  0
  6  1  1  0
  7  9  1  0
  8 15  1  0
  9 12  1  0
 10  7  1  0
  3 11  1  1
 12 11  1  0
  4 13  1  0
 14 10  2  0
 15  5  1  0
 16  6  1  0
 17  7  2  0
 18 17  1  0
 19  8  2  0
 20 13  1  0
 21  9  2  0
 22  2  2  0
 23 12  2  0
 24 16  1  0
 25 16  2  0
 26 19  1  0
 27 14  1  0
 28  8  1  0
 29 21  1  0
 30 19  1  0
 31 28  2  0
 32 30  1  0
 33 31  1  0
 34 26  1  0
 35 29  1  0
  2  3  1  0
 20  5  1  0
 26 33  2  0
 34 32  1  0
 18 14  1  0
  4 36  1  6
M  CHG  2   8   1  24  -1
M  END

> <chembl_id>
CHEMBL65794

> <chembl_pref_name>
CEFPIROME

$$$$

     RDKit          2D

 28 30  0  0  0  0  0  0  0  0999 V2000
    2.7542   -8.3667    0.0000 N   0  0  0  0  0  0  0  0  0  0  0  0
    2.0458   -8.3625    0.0000 C   0  0  0  0  0  0  0  0  0  0  0  0
    2.0458   -7.6542    0.0000 C   0  0  0  0  0  0  0  0  0  0  0  0
    2.7542   -7.6583    0.0000 C   0  0  0  0  0  0  0  0  0  0  0  0
    0.2000   -7.3042    0.0000 C   0  0  0  0  0  0  0  0  0  0  0  0
    3.3625   -8.7167    0.0000 C   0  0  0  0  0  0  0  0  0  0  0  0
   -0.4125   -7.6625    0.0000 C   0  0  0  0  0  0  0  0  0  0  0  0
    1.4292   -7.3042    0.0000 N   0  0  0  0  0  0  0  0  0  0  0  0
    0.8125   -7.6583    0.0000 C   0  0  0  0  0  0  0  0  0  0  0  0
   -0.9875   -7.2417    0.0000 N   0  0  0  0  0  0  0  0  0  0  0  0
   -1.5583   -7.6625    0.0000 C   0  0  0  0  0  0  0  0  0  0  0  0
    0.1958   -6.5917    0.0000 C   0  0  0  0  0  0  0  0  0  0  0  0
   -1.3417   -8.3333    0.0000 S   0  0  0  0  0  0  0  0  0  0  0  0
   -0.6333   -8.3333    0.0000 C   0  0  0  0  0  0  0  0  0  0  0  0
    3.3625   -9.4292    0.0000 C   0  0  0  0  0  0  0  0  0  0  0  0
    3.3625   -7.3042    0.0000 S   0  0  0  0  0  0  0  0  0  0  0  0
    3.9750   -8.3667    0.0000 C   0  0  0  0  0  0  0  0  0  0  0  0
    1.5417   -8.8667    0.0000 O   0  0  0  0  0  0  0  0  0  0  0  0
    0.8125   -5.5333    0.0000 C   0  0  0  0  0  0  0  0  0  0  0  0
    0.8167   -8.3667    0.0000 O   0  0  0  0  0  0  0  0  0  0  0  0
    2.7500   -9.7792    0.0000 O   0  0  0  0  0  0  0  0  0  0  0  0
    0.8125   -6.2417    0.0000 C   0  0  0  0  0  0  0  0  0  0  0  0
    0.2000   -5.1750    0.0000 O   0  0  0  0  0  0  0  0  0  0  0  0
   -2.1750   -7.3042    0.0000 N   0  0  0  0  0  0  0  0  0  0  0  0
    3.9750   -7.6542    0.0000 C   0  0  0  0  0  0  0  0  0  0  0  0
    3.9792   -9.7792    0.0000 O   0  0  0  0  0  0  0  0  0  0  0  0
    1.4292   -5.1792    0.0000 O   0  0  0  0  0  0  0  0  0  0  0  0
    2.7500   -6.9500    0.0000 H   0  0  0  0  0  0  0  0  0  0  0  0
  2  1  1  0
  3  2  1  0
  4  1  1  0
  5  9  1  0
  6  1  1  0
  7  5  1  0
  3  8  1  1
  9  8  1  0
 10  7  1  0
 11 10  2  0
 12  5  2  0
 13 14  1  0
 14  7  2  0
 15  6  1  0
 16  4  1  0
 17  6  2  0
 18  2  2  0
 19 22  1  0
 20  9  2  0
 21 15  2  0
 22 12  1  0
 23 19  2  0
 24 11  1  0
 25 16  1  0
 26 15  1  0
 27 19  1  0
  4 28  1  6
  3  4  1  0
 25 17  1  0
 13 11  1  0
M  END

> <chembl_id>
CHEMBL1605

> <chembl_pref_name>
CEFTIBUTEN

$$$$

     RDKit          2D

 20 21  0  0  0  0  0  0  0  0999 V2000
   13.6564   -2.6812    0.0000 C   0  0  0  0  0  0  0  0  0  0  0  0
   13.6551   -3.5087    0.0000 C   0  0  0  0  0  0  0  0  0  0  0  0
   14.3680   -3.9216    0.0000 C   0  0  0  0  0  0  0  0  0  0  0  0
   15.0874   -3.5082    0.0000 C   0  0  0  0  0  0  0  0  0  0  0  0
   15.0842   -2.6771    0.0000 C   0  0  0  0  0  0  0  0  0  0  0  0
   14.3661   -2.2684    0.0000 C   0  0  0  0  0  0  0  0  0  0  0  0
   14.3622   -1.4434    0.0000 S   0  0  0  0  0  0  0  0  0  0  0  0
   14.3546   -0.6141    0.0000 N   0  0  0  0  0  0  0  0  0  0  0  0
   15.1872   -1.4377    0.0000 O   0  0  0  0  0  0  0  0  0  0  0  0
   13.5373   -1.4534    0.0000 O   0  0  0  0  0  0  0  0  0  0  0  0
   14.3667   -4.7466    0.0000 N   0  0  0  0  0  0  0  0  0  0  0  0
   15.0653   -0.1951    0.0000 C   0  0  0  0  0  0  0  0  0  0  0  0
   15.7808   -0.6030    0.0000 N   0  0  0  0  0  0  0  0  0  0  0  0
   16.4910   -0.1847    0.0000 C   0  0  0  0  0  0  0  0  0  0  0  0
   16.4838    0.6412    0.0000 N   0  0  0  0  0  0  0  0  0  0  0  0
   15.7606    1.0468    0.0000 C   0  0  0  0  0  0  0  0  0  0  0  0
   15.0534    0.6262    0.0000 C   0  0  0  0  0  0  0  0  0  0  0  0
   17.2090   -0.5909    0.0000 C   0  0  0  0  0  0  0  0  0  0  0  0
   15.7501    1.8718    0.0000 O   0  0  0  0  0  0  0  0  0  0  0  0
   16.4593    2.2933    0.0000 C   0  0  0  0  0  0  0  0  0  0  0  0
  7 10  2  0
  2  3  1  0
  3 11  1  0
  5  6  2  0
  8 12  1  0
  6  1  1  0
 12 13  2  0
  1  2  2  0
 13 14  1  0
  6  7  1  0
 14 15  2  0
  3  4  2  0
 15 16  1  0
  7  8  1  0
 16 17  2  0
 17 12  1  0
 14 18  1  0
  7  9  2  0
 16 19  1  0
  4  5  1  0
 19 20  1  0
M  END

> <chembl_id>
CHEMBL485940

> <chembl_pref_name>
SULFAMETOMIDINE

$$$$

     RDKit          2D

 37 37  0  0  1  0  0  0  0  0999 V2000
   -0.6217   -0.0573    0.0000 C   0  0  0  0  0  0  0  0  0  0  0  0
    0.0890   -0.4692    0.0000 C   0  0  0  0  0  0  0  0  0  0  0  0
   -0.6217    0.7669    0.0000 C   0  0  0  0  0  0  0  0  0  0  0  0
   -1.3317   -0.4709    0.0000 C   0  0  0  0  0  0  0  0  0  0  0  0
    0.8039   -0.0573    0.0000 C   0  0  0  0  0  0  0  0  0  0  0  0
    0.0890   -1.2931    0.0000 O   0  0  0  0  0  0  0  0  0  0  0  0
   -1.3384    1.1815    0.0000 C   0  0  0  0  0  0  0  0  0  0  0  0
   -2.0543   -0.0554    0.0000 C   0  0  0  0  0  0  0  0  0  0  0  0
    1.5187   -0.4692    0.0000 C   0  0  0  0  0  0  0  0  0  0  0  0
    0.8039    0.7665    0.0000 N   0  0  0  0  0  0  0  0  0  0  0  0
   -2.0546    0.7669    0.0000 C   0  0  0  0  0  0  0  0  0  0  0  0
    2.2294   -0.0573    0.0000 O   0  0  0  0  0  0  0  0  0  0  0  0
    1.5187    1.1785    0.0000 C   0  0  0  0  0  0  0  0  0  0  0  0
   -2.7695    1.1798    0.0000 N   0  0  0  0  0  0  0  0  0  0  0  0
    2.9443   -0.4692    0.0000 C   0  0  0  0  0  0  0  0  0  0  0  0
    1.5187    2.0023    0.0000 C   0  0  0  0  0  0  0  0  0  0  0  0
    2.2294    0.7665    0.0000 O   0  0  0  0  0  0  0  0  0  0  0  0
   -2.7695    2.0051    0.0000 O   0  0  0  0  0  0  0  0  0  0  0  0
   -3.4788    0.7686    0.0000 O   0  0  0  0  0  0  0  0  0  0  0  0
    3.6550   -0.0573    0.0000 C   0  0  0  0  0  0  0  0  0  0  0  0
    2.9443   -1.2931    0.0000 O   0  0  0  0  0  0  0  0  0  0  0  0
    2.2294    2.4142    0.0000 Cl  0  0  0  0  0  0  0  0  0  0  0  0
    0.8039    2.4142    0.0000 Cl  0  0  0  0  0  0  0  0  0  0  0  0
    4.3699   -0.4692    0.0000 C   0  0  0  0  0  0  0  0  0  0  0  0
    5.0847   -0.0573    0.0000 C   0  0  0  0  0  0  0  0  0  0  0  0
    5.7996   -0.4692    0.0000 C   0  0  0  0  0  0  0  0  0  0  0  0
    6.5103   -0.0573    0.0000 C   0  0  0  0  0  0  0  0  0  0  0  0
    7.2251   -0.4692    0.0000 C   0  0  0  0  0  0  0  0  0  0  0  0
    7.9358   -0.0573    0.0000 C   0  0  0  0  0  0  0  0  0  0  0  0
    8.6507   -0.4692    0.0000 C   0  0  0  0  0  0  0  0  0  0  0  0
    9.3656   -0.0573    0.0000 C   0  0  0  0  0  0  0  0  0  0  0  0
   10.0804   -0.4692    0.0000 C   0  0  0  0  0  0  0  0  0  0  0  0
   10.7911   -0.0573    0.0000 C   0  0  0  0  0  0  0  0  0  0  0  0
   11.5060   -0.4692    0.0000 C   0  0  0  0  0  0  0  0  0  0  0  0
   12.2168   -0.0573    0.0000 C   0  0  0  0  0  0  0  0  0  0  0  0
   12.9317   -0.4692    0.0000 C   0  0  0  0  0  0  0  0  0  0  0  0
   13.6465   -0.0573    0.0000 C   0  0  0  0  0  0  0  0  0  0  0  0
  1  2  1  0
  1  3  1  0
  1  4  2  0
  2  5  1  0
  2  6  1  6
  3  7  2  0
  4  8  1  0
  5  9  1  6
  5 10  1  0
  7 11  1  0
  9 12  1  0
 10 13  1  0
 11 14  1  0
 12 15  1  0
 13 16  1  0
 13 17  2  0
 14 18  2  0
 14 19  1  0
 15 20  1  0
 15 21  2  0
 16 22  1  0
 16 23  1  0
 20 24  1  0
 24 25  1  0
 25 26  1  0
 26 27  1  0
 27 28  1  0
 28 29  1  0
 29 30  1  0
 30 31  1  0
 31 32  1  0
 32 33  1  0
 33 34  1  0
 34 35  1  0
 35 36  1  0
 36 37  1  0
  8 11  2  0
M  CHG  2  14   1  19  -1
M  END

> <chembl_id>
CHEMBL1506

> <chembl_pref_name>
CHLORAMPHENICOL PALMITATE

$$$$

     RDKit          2D

 19 20  0  0  0  0  0  0  0  0999 V2000
    0.6769   -0.0868    0.0000 S   0  0  0  0  0  0  0  0  0  0  0  0
    1.5019   -0.0868    0.0000 O   0  0  0  0  0  0  0  0  0  0  0  0
   -0.1481   -0.0868    0.0000 O   0  0  0  0  0  0  0  0  0  0  0  0
    0.6769    0.7382    0.0000 N   0  0  0  0  0  0  0  0  0  0  0  0
   -0.0376    1.9757    0.0000 N   0  0  0  0  0  0  0  0  0  0  0  0
   -0.7521    0.7382    0.0000 N   0  0  0  0  0  0  0  0  0  0  0  0
    0.6769   -3.3868    0.0000 N   0  0  0  0  0  0  0  0  0  0  0  0
    0.6769   -0.9118    0.0000 C   0  0  0  0  0  0  0  0  0  0  0  0
   -0.0376    1.1507    0.0000 C   0  0  0  0  0  0  0  0  0  0  0  0
    1.3913   -1.3243    0.0000 C   0  0  0  0  0  0  0  0  0  0  0  0
   -0.0376   -1.3243    0.0000 C   0  0  0  0  0  0  0  0  0  0  0  0
   -0.7521    2.3882    0.0000 C   0  0  0  0  0  0  0  0  0  0  0  0
   -1.4665    1.1507    0.0000 C   0  0  0  0  0  0  0  0  0  0  0  0
   -1.4665    1.9757    0.0000 C   0  0  0  0  0  0  0  0  0  0  0  0
    0.6769   -2.5618    0.0000 C   0  0  0  0  0  0  0  0  0  0  0  0
    1.3913   -2.1493    0.0000 C   0  0  0  0  0  0  0  0  0  0  0  0
   -0.0376   -2.1493    0.0000 C   0  0  0  0  0  0  0  0  0  0  0  0
   -0.7521    3.2132    0.0000 C   0  0  0  0  0  0  0  0  0  0  0  0
   -2.1810    0.7382    0.0000 C   0  0  0  0  0  0  0  0  0  0  0  0
  1  2  2  0
  1  3  2  0
  1  4  1  0
  1  8  1  0
  4  9  1  0
  5  9  1  0
  5 12  2  0
  6  9  2  0
  6 13  1  0
  7 15  1  0
  8 10  2  0
  8 11  1  0
 10 16  1  0
 11 17  2  0
 12 14  1  0
 12 18  1  0
 13 14  2  0
 13 19  1  0
 15 16  2  0
 15 17  1  0
M  END

> <chembl_id>
CHEMBL446

> <chembl_pref_name>
SULFAMETHAZINE

$$$$

     RDKit          2D

 16 16  0  0  0  0  0  0  0  0999 V2000
    8.4372  -22.2856    0.0000 C   0  0  0  0  0  0  0  0  0  0  0  0
    8.3290  -21.4698    0.0000 N   0  0  0  0  0  0  0  0  0  0  0  0
    7.8420  -22.8517    0.0000 N   0  0  0  0  0  0  0  0  0  0  0  0
    9.2489  -22.4354    0.0000 C   0  0  0  0  0  0  0  0  0  0  0  0
    9.6360  -21.7071    0.0000 N   0  0  0  0  0  0  0  0  0  0  0  0
    6.1812  -21.1160    0.0000 S   0  0  0  0  0  0  0  0  0  0  0  0
    9.0741  -21.1118    0.0000 C   0  0  0  0  0  0  0  0  0  0  0  0
    7.6089  -21.0743    0.0000 C   0  0  0  0  0  0  0  0  0  0  0  0
    6.9013  -21.5073    0.0000 C   0  0  0  0  0  0  0  0  0  0  0  0
    8.0751  -23.6426    0.0000 O   0  0  0  0  0  0  0  0  0  0  0  0
    7.0511  -22.6187    0.0000 O   0  0  0  0  0  0  0  0  0  0  0  0
    6.5725  -20.3917    0.0000 O   0  0  0  0  0  0  0  0  0  0  0  0
    5.7899  -21.8360    0.0000 O   0  0  0  0  0  0  0  0  0  0  0  0
    5.4569  -20.7206    0.0000 C   0  0  0  0  0  0  0  0  0  0  0  0
    9.2239  -20.3001    0.0000 C   0  0  0  0  0  0  0  0  0  0  0  0
    4.7577  -21.1492    0.0000 C   0  0  0  0  0  0  0  0  0  0  0  0
  2  1  1  0
  3  1  1  0
  4  1  2  0
  5  4  1  0
  6  9  1  0
  7  2  1  0
  8  2  1  0
  9  8  1  0
 10  3  1  0
 11  3  2  0
 12  6  2  0
 13  6  2  0
 14  6  1  0
 15  7  1  0
 16 14  1  0
  5  7  2  0
M  CHG  2   3   1  10  -1
M  END

> <chembl_id>
CHEMBL1220

> <chembl_pref_name>
TINIDAZOLE

$$$$

     RDKit          2D

 35 38  0  0  1  0  0  0  0  0999 V2000
    4.5291    4.0952    0.0000 S   0  0  0  0  0  0  0  0  0  0  0  0
   10.0999    6.8702    0.0000 S   0  0  0  0  0  0  0  0  0  0  0  0
    1.5390   -1.5231    0.0000 O   0  0  0  0  0  0  0  0  0  0  0  0
    6.0202   -2.4902    0.0000 O   0  0  0  0  0  0  0  0  0  0  0  0
    1.5601    4.3146    0.0000 O   0  0  0  0  0  0  0  0  0  0  0  0
    0.4910    2.2290    0.0000 O   0  0  0  0  0  0  0  0  0  0  0  0
    0.2928    6.5848    0.0000 O   0  0  0  0  0  0  0  0  0  0  0  0
   -2.0435    6.7695    0.0000 O   0  0  0  0  0  0  0  0  0  0  0  0
    2.9467    0.5893    0.0000 N   0  0  0  0  0  0  0  0  0  0  0  0
    7.9422    5.1436    0.0000 N   0  0  0  0  0  0  0  0  0  0  0  0
   10.3529    4.4564    0.0000 N   0  0  0  0  0  0  0  0  0  0  0  0
    4.4028    0.2427    0.0000 C   0  0  0  0  0  0  0  0  0  0  0  0
    4.0387   -1.2480    0.0000 C   0  0  0  0  0  0  0  0  0  0  0  0
    5.1654    1.5080    0.0000 C   0  0  0  0  0  0  0  0  0  0  0  0
    2.5654   -0.9014    0.0000 C   0  0  0  0  0  0  0  0  0  0  0  0
    2.8254    2.0454    0.0000 C   0  0  0  0  0  0  0  0  0  0  0  0
    4.1948    2.6347    0.0000 C   0  0  0  0  0  0  0  0  0  0  0  0
    4.8206   -2.5217    0.0000 C   0  0  0  0  0  0  0  0  0  0  0  0
    1.5388    2.8139    0.0000 C   0  0  0  0  0  0  0  0  0  0  0  0
    6.3612    1.6091    0.0000 C   0  0  0  0  0  0  0  0  0  0  0  0
    4.2484   -3.5765    0.0000 C   0  0  0  0  0  0  0  0  0  0  0  0
    5.9632    4.5376    0.0000 C   0  0  0  0  0  0  0  0  0  0  0  0
    6.6174    5.8472    0.0000 C   0  0  0  0  0  0  0  0  0  0  0  0
    7.2385    3.8188    0.0000 C   0  0  0  0  0  0  0  0  0  0  0  0
    0.2716    5.0842    0.0000 C   0  0  0  0  0  0  0  0  0  0  0  0
    9.3771    5.5829    0.0000 C   0  0  0  0  0  0  0  0  0  0  0  0
   -0.9957    7.3544    0.0000 C   0  0  0  0  0  0  0  0  0  0  0  0
   11.5670    6.5579    0.0000 C   0  0  0  0  0  0  0  0  0  0  0  0
   11.7234    5.0661    0.0000 C   0  0  0  0  0  0  0  0  0  0  0  0
   -0.9745    8.8551    0.0000 C   0  0  0  0  0  0  0  0  0  0  0  0
   -2.0047    9.4704    0.0000 C   0  0  0  0  0  0  0  0  0  0  0  0
    0.0733    9.4400    0.0000 C   0  0  0  0  0  0  0  0  0  0  0  0
   -0.9569   10.0549    0.0000 C   0  0  0  0  0  0  0  0  0  0  0  0
    3.4531   -2.0586    0.0000 H   0  0  0  0  0  0  0  0  0  0  0  0
    5.3273   -0.1384    0.0000 H   0  0  0  0  0  0  0  0  0  0  0  0
  1 17  1  0
  1 22  1  0
  2 26  1  0
 28  2  1  0
 15  3  2  0
 18  4  1  6
 19  5  1  0
  5 25  1  0
 19  6  2  0
 25  7  1  0
  7 27  1  0
 27  8  2  0
 12  9  1  0
  9 15  1  0
 16  9  1  0
 10 23  1  0
 24 10  1  0
 10 26  1  0
 26 11  2  0
 11 29  1  0
 13 12  1  0
 12 14  1  0
 13 15  1  0
 13 18  1  0
 14 17  1  0
 14 20  1  6
 17 16  2  0
 16 19  1  0
 18 21  1  0
 23 22  1  0
 22 24  1  0
 27 30  1  0
 29 28  1  0
 30 31  1  0
 30 32  1  0
 30 33  1  0
 13 34  1  6
 12 35  1  1
M  END

> <chembl_id>
CHEMBL2107486

> <chembl_pref_name>
TEBIPENEM PIVOXIL

$$$$

     RDKit          2D

 31 33  0  0  0  0  0  0  0  0999 V2000
    1.9042   -1.2625    0.0000 C   0  0  0  0  0  0  0  0  0  0  0  0
    2.6167   -1.9875    0.0000 N   0  0  0  0  0  0  0  0  0  0  0  0
    1.9042   -1.9875    0.0000 C   0  0  0  0  0  0  0  0  0  0  0  0
    2.6292   -1.2542    0.0000 C   0  0  0  0  0  0  0  0  0  0  0  0
    5.6917   -2.3667    0.0000 C   0  0  0  0  0  0  0  0  0  0  0  0
    3.2417   -2.3417    0.0000 C   0  0  0  0  0  0  0  0  0  0  0  0
    5.9292   -3.0667    0.0000 N   0  0  0  0  0  0  0  0  0  0  0  0
    6.2667   -1.9625    0.0000 N   0  0  0  0  0  0  0  0  0  0  0  0
    6.8625   -2.3792    0.0000 N   0  0  0  0  0  0  0  0  0  0  0  0
    6.6417   -3.0667    0.0000 N   0  0  0  0  0  0  0  0  0  0  0  0
    3.2417   -0.9042    0.0000 S   0  0  0  0  0  0  0  0  0  0  0  0
    3.8625   -1.9875    0.0000 C   0  0  0  0  0  0  0  0  0  0  0  0
    1.2917   -0.9167    0.0000 N   0  0  0  0  0  0  0  0  0  0  0  0
    3.2417   -3.0417    0.0000 C   0  0  0  0  0  0  0  0  0  0  0  0
    5.0917   -2.0042    0.0000 S   0  0  0  0  0  0  0  0  0  0  0  0
   -2.3208   -1.7625    0.0000 N   0  0  0  0  0  0  0  0  0  0  0  0
    3.8625   -1.2625    0.0000 C   0  0  0  0  0  0  0  0  0  0  0  0
    0.6750   -1.2792    0.0000 C   0  0  0  0  0  0  0  0  0  0  0  0
    1.4125   -2.4792    0.0000 O   0  0  0  0  0  0  0  0  0  0  0  0
    4.4625   -2.3500    0.0000 C   0  0  0  0  0  0  0  0  0  0  0  0
   -1.7333   -1.3750    0.0000 C   0  0  0  0  0  0  0  0  0  0  0  0
    1.8917   -0.5542    0.0000 O   0  0  0  0  0  0  0  0  0  0  0  0
    3.8417   -3.3625    0.0000 O   0  0  0  0  0  0  0  0  0  0  0  0
    2.6417   -3.4417    0.0000 O   0  0  0  0  0  0  0  0  0  0  0  0
    0.7125   -1.9792    0.0000 O   0  0  0  0  0  0  0  0  0  0  0  0
    5.5250   -3.6417    0.0000 C   0  0  0  0  0  0  0  0  0  0  0  0
   -0.5250   -1.3167    0.0000 S   0  0  0  0  0  0  0  0  0  0  0  0
   -1.1583   -0.9917    0.0000 C   0  0  0  0  0  0  0  0  0  0  0  0
    0.0625   -0.9417    0.0000 C   0  0  0  0  0  0  0  0  0  0  0  0
    1.2625   -0.2208    0.0000 C   0  0  0  0  0  0  0  0  0  0  0  0
    2.6292   -0.5500    0.0000 H   0  0  0  0  0  0  0  0  0  0  0  0
  2  4  1  0
  3  1  1  0
  4  1  1  0
  5 15  1  0
  6  2  1  0
  7  5  1  0
  8  5  2  0
  9  8  1  0
 10  7  1  0
 11  4  1  0
 12 17  1  0
 13  1  1  0
 14  6  1  0
 15 20  1  0
 16 21  3  0
 17 11  1  0
 18 13  1  0
 19  3  2  0
 20 12  1  0
 21 28  1  0
  1 22  1  6
 23 14  1  0
 24 14  2  0
 25 18  2  0
 26  7  1  0
 27 29  1  0
 28 27  1  0
 29 18  1  0
 30 22  1  0
  4 31  1  6
  3  2  1  0
 12  6  2  0
 10  9  2  0
M  END

> <chembl_id>
CHEMBL1201195

> <chembl_pref_name>
CEFMETAZOLE

$$$$

     RDKit          2D

 26 29  0  0  0  0  0  0  0  0999 V2000
   11.6933  -15.0225    0.0000 C   0  0  0  0  0  0  0  0  0  0  0  0
   11.4326  -15.8092    0.0000 C   0  0  0  0  0  0  0  0  0  0  0  0
   10.6441  -16.0519    0.0000 C   0  0  0  0  0  0  0  0  0  0  0  0
    9.8204  -16.0440    0.0000 C   0  0  0  0  0  0  0  0  0  0  0  0
    9.8095  -16.8706    0.0000 C   0  0  0  0  0  0  0  0  0  0  0  0
    9.2221  -17.4470    0.0000 O   0  0  0  0  0  0  0  0  0  0  0  0
   10.6391  -16.8785    0.0000 N   0  0  0  0  0  0  0  0  0  0  0  0
   11.4199  -17.1450    0.0000 C   0  0  0  0  0  0  0  0  0  0  0  0
   11.9123  -16.4818    0.0000 C   0  0  0  0  0  0  0  0  0  0  0  0
   12.7389  -16.4867    0.0000 S   0  0  0  0  0  0  0  0  0  0  0  0
   13.1576  -15.7752    0.0000 C   0  0  0  0  0  0  0  0  0  0  0  0
   13.9783  -15.6968    0.0000 C   0  0  0  0  0  0  0  0  0  0  0  0
   14.1600  -14.8931    0.0000 N   0  0  0  0  0  0  0  0  0  0  0  0
   14.7775  -14.3438    0.0000 C   0  0  0  0  0  0  0  0  0  0  0  0
   14.4479  -13.5895    0.0000 N   0  0  0  0  0  0  0  0  0  0  0  0
   13.6273  -13.6679    0.0000 C   0  0  0  0  0  0  0  0  0  0  0  0
   13.4456  -14.4715    0.0000 N   0  0  0  0  0  0  0  0  0  0  0  0
   12.8311  -15.0179    0.0000 C   0  0  0  0  0  0  0  0  0  0  0  0
   11.6684  -17.9277    0.0000 C   0  0  0  0  0  0  0  0  0  0  0  0
   12.4815  -18.0658    0.0000 O   0  0  0  0  0  0  0  0  0  0  0  0
   11.1421  -18.5685    0.0000 O   0  0  0  0  0  0  0  0  0  0  0  0
    9.0031  -15.9259    0.0000 C   0  0  0  0  0  0  0  0  0  0  0  0
    8.6956  -15.1612    0.0000 C   0  0  0  0  0  0  0  0  0  0  0  0
    8.4950  -16.5795    0.0000 O   0  0  0  0  0  0  0  0  0  0  0  0
   10.6367  -15.2298    0.0000 H   0  0  0  0  0  0  0  0  0  0  0  0
    9.8220  -15.2298    0.0000 H   0  0  0  0  0  0  0  0  0  0  0  0
  2  3  1  0
  3  4  1  0
  4  5  1  0
  5  6  2  0
  5  7  1  0
  3  7  1  0
  7  8  1  0
  8  9  2  0
  2  9  1  0
  9 10  1  0
 10 11  1  0
 11 12  1  0
 12 13  1  0
 13 14  1  0
 14 15  2  0
 15 16  1  0
 16 17  2  0
 13 17  1  0
 17 18  1  0
 11 18  1  0
  8 19  1  0
 19 20  2  0
 19 21  1  0
  4 22  1  0
 22 23  1  0
 22 24  1  6
  3 25  1  6
  2  1  1  1
  4 26  1  1
M  CHG  2  17   1  21  -1
M  END

> <chembl_id>
CHEMBL285347

> <chembl_pref_name>
BIAPENEM

$$$$

     RDKit          2D

 19 20  0  0  0  0  0  0  0  0999 V2000
   -5.1000   -0.8655    0.0000 C   0  0  0  0  0  0  0  0  0  0  0  0
   -5.9205   -0.9517    0.0000 C   0  0  0  0  0  0  0  0  0  0  0  0
   -6.0920   -1.7586    0.0000 C   0  0  0  0  0  0  0  0  0  0  0  0
   -5.3775   -2.1711    0.0000 O   0  0  0  0  0  0  0  0  0  0  0  0
   -4.7645   -1.6191    0.0000 C   0  0  0  0  0  0  0  0  0  0  0  0
   -3.9575   -1.7907    0.0000 C   0  0  0  0  0  0  0  0  0  0  0  0
   -3.4055   -1.1776    0.0000 N   0  0  0  0  0  0  0  0  0  0  0  0
   -2.5985   -1.3491    0.0000 N   0  0  0  0  0  0  0  0  0  0  0  0
   -6.8457   -2.0942    0.0000 N   0  0  0  0  0  0  0  0  0  0  0  0
   -6.9319   -2.9147    0.0000 O   0  0  0  0  0  0  0  0  0  0  0  0
   -7.5131   -1.6093    0.0000 O   0  0  0  0  0  0  0  0  0  0  0  0
   -2.2629   -2.1028    0.0000 C   0  0  0  0  0  0  0  0  0  0  0  0
   -1.4425   -2.0166    0.0000 C   0  0  0  0  0  0  0  0  0  0  0  0
   -1.2709   -1.2096    0.0000 N   0  0  0  0  0  0  0  0  0  0  0  0
   -1.9854   -0.7971    0.0000 C   0  0  0  0  0  0  0  0  0  0  0  0
   -0.5173   -0.8740    0.0000 C   0  0  0  0  0  0  0  0  0  0  0  0
   -0.3037   -0.0772    0.0000 O   0  0  0  0  0  0  0  0  0  0  0  0
   -2.0716    0.0234    0.0000 O   0  0  0  0  0  0  0  0  0  0  0  0
   -0.8905   -2.6297    0.0000 O   0  0  0  0  0  0  0  0  0  0  0  0
  1  2  1  0
  2  3  2  0
  3  4  1  0
  4  5  1  0
  1  5  2  0
  5  6  1  0
  6  7  2  0
  7  8  1  0
  3  9  1  0
  9 10  1  0
  9 11  2  0
  8 12  1  0
  8 15  1  0
 12 13  1  0
 13 14  1  0
 14 15  1  0
 14 16  1  0
 16 17  1  0
 15 18  2  0
 13 19  2  0
M  CHG  2   9   1  10  -1
M  END

> <chembl_id>
CHEMBL1697763

> <chembl_pref_name>
NIFURTOINOL

$$$$

     RDKit          2D

 58 60  0  0  0  0  0  0  0  0999 V2000
    8.4792   -9.2833    0.0000 C   0  0  0  0  0  0  0  0  0  0  0  0
    8.4792  -10.1083    0.0000 C   0  0  0  0  0  0  0  0  0  0  0  0
    9.9032  -10.1083    0.0000 C   0  0  0  0  0  0  0  0  0  0  0  0
    9.9032   -9.2833    0.0000 C   0  0  0  0  0  0  0  0  0  0  0  0
    9.1912   -8.8667    0.0000 C   0  0  0  0  0  0  0  0  0  0  0  0
    7.7647  -10.5208    0.0000 C   0  0  0  0  0  0  0  0  0  0  0  0
    7.7647  -11.3458    0.0000 C   0  0  0  0  0  0  0  0  0  0  0  0
    7.0502  -11.7583    0.0000 C   0  0  0  0  0  0  0  0  0  0  0  0
    7.0502  -12.5833    0.0000 C   0  0  0  0  0  0  0  0  0  0  0  0
    7.7647  -12.9958    0.0000 O   0  0  0  0  0  0  0  0  0  0  0  0
    8.4792  -12.5833    0.0000 C   0  0  0  0  0  0  0  0  0  0  0  0
    9.1936  -12.9958    0.0000 C   0  0  0  0  0  0  0  0  0  0  0  0
    8.4792  -11.7583    0.0000 O   0  0  0  0  0  0  0  0  0  0  0  0
    9.9081  -12.5833    0.0000 C   0  0  0  0  0  0  0  0  0  0  0  0
   10.6226  -12.9958    0.0000 O   0  0  0  0  0  0  0  0  0  0  0  0
   10.6226  -13.8208    0.0000 C   0  0  0  0  0  0  0  0  0  0  0  0
   11.3370  -14.2333    0.0000 O   0  0  0  0  0  0  0  0  0  0  0  0
    9.9081  -14.2333    0.0000 C   0  0  0  0  0  0  0  0  0  0  0  0
    9.9081  -11.7583    0.0000 C   0  0  0  0  0  0  0  0  0  0  0  0
   10.6226  -11.3458    0.0000 C   0  0  0  0  0  0  0  0  0  0  0  0
    9.1936  -11.3458    0.0000 O   0  0  0  0  0  0  0  0  0  0  0  0
    9.1887  -10.5208    0.0000 C   0  0  0  0  0  0  0  0  0  0  0  0
   10.6177  -10.5208    0.0000 C   0  0  0  0  0  0  0  0  0  0  0  0
    9.1912   -8.0417    0.0000 O   0  0  0  0  0  0  0  0  0  0  0  0
   10.6189   -8.8729    0.0000 C   0  0  0  0  0  0  0  0  0  0  0  0
   11.3309  -10.1062    0.0000 C   0  0  0  0  0  0  0  0  0  0  0  0
   11.3285   -9.2812    0.0000 C   0  0  0  0  0  0  0  0  0  0  0  0
   12.0417   -8.8666    0.0000 O   0  0  0  0  0  0  0  0  0  0  0  0
   11.3383  -11.7562    0.0000 O   0  0  0  0  0  0  0  0  0  0  0  0
   12.0515  -11.3416    0.0000 C   0  0  0  0  0  0  0  0  0  0  0  0
   12.7623  -11.7534    0.0000 C   0  0  0  0  0  0  0  0  0  0  0  0
   13.4735  -11.3423    0.0000 C   0  0  0  0  0  0  0  0  0  0  0  0
   13.4753  -10.5169    0.0000 C   0  0  0  0  0  0  0  0  0  0  0  0
   12.7597  -10.1043    0.0000 C   0  0  0  0  0  0  0  0  0  0  0  0
   12.0424  -10.5171    0.0000 O   0  0  0  0  0  0  0  0  0  0  0  0
   12.7601   -9.2793    0.0000 C   0  0  0  0  0  0  0  0  0  0  0  0
   14.1901  -10.1050    0.0000 O   0  0  0  0  0  0  0  0  0  0  0  0
   14.1876  -11.7553    0.0000 N   0  0  0  0  0  0  0  0  0  0  0  0
   14.1869  -12.5803    0.0000 C   0  0  0  0  0  0  0  0  0  0  0  0
   14.9024  -11.3434    0.0000 C   0  0  0  0  0  0  0  0  0  0  0  0
   12.7620  -12.5784    0.0000 O   0  0  0  0  0  0  0  0  0  0  0  0
   14.1907   -9.2800    0.0000 C   0  0  0  0  0  0  0  0  0  0  0  0
   14.9084   -8.8728    0.0000 C   0  0  0  0  0  0  0  0  0  0  0  0
   14.9110   -8.0514    0.0000 C   0  0  0  0  0  0  0  0  0  0  0  0
   14.1987   -7.6345    0.0000 C   0  0  0  0  0  0  0  0  0  0  0  0
   13.4821   -8.0452    0.0000 C   0  0  0  0  0  0  0  0  0  0  0  0
   13.4778   -8.8728    0.0000 O   0  0  0  0  0  0  0  0  0  0  0  0
   12.7694   -7.6297    0.0000 C   0  0  0  0  0  0  0  0  0  0  0  0
   14.2025   -6.8095    0.0000 O   0  0  0  0  0  0  0  0  0  0  0  0
   14.9188   -6.4003    0.0000 C   0  0  0  0  0  0  0  0  0  0  0  0
   15.6314   -6.8161    0.0000 C   0  0  0  0  0  0  0  0  0  0  0  0
   16.3478   -6.4068    0.0000 C   0  0  0  0  0  0  0  0  0  0  0  0
   17.0603   -6.8226    0.0000 C   0  0  0  0  0  0  0  0  0  0  0  0
   16.3516   -5.5818    0.0000 C   0  0  0  0  0  0  0  0  0  0  0  0
   15.1208   -7.2500    0.0000 C   0  0  0  0  0  0  0  0  0  0  0  0
   15.5597   -8.5612    0.0000 O   0  0  0  0  0  0  0  0  0  0  0  0
    6.3358  -12.9958    0.0000 C   0  0  0  0  0  0  0  0  0  0  0  0
   14.9226   -5.5753    0.0000 O   0  0  0  0  0  0  0  0  0  0  0  0
 20 29  1  6
 14 15  1  6
 30 29  1  6
 30 31  1  0
  7  8  1  0
 15 16  1  0
  3  4  1  0
 16 17  2  0
  8  9  1  0
 30 35  1  0
 31 32  1  0
 32 33  1  0
 33 34  1  0
 34 35  1  0
 16 18  1  0
 34 36  1  6
  4  5  1  0
 33 37  1  1
 14 19  1  0
 32 38  1  6
  9 10  1  0
 38 39  1  0
 19 20  1  0
 38 40  1  0
  1  2  2  0
 31 41  1  1
 19 21  1  6
 42 37  1  6
 42 43  1  0
 21 22  1  0
 20 23  1  0
 10 11  1  0
  2  6  1  0
  3 23  1  0
 42 47  1  0
 43 44  1  0
 44 45  1  0
 45 46  1  0
 46 47  1  0
 11 12  1  0
 46 48  1  1
  5 24  1  6
 45 49  1  6
 49 50  1  0
  4 25  1  6
 50 58  2  0
 11 13  2  0
 50 51  1  0
 23 26  1  6
 51 52  1  0
  6  7  2  0
 52 53  1  0
 26 27  1  0
 52 54  1  0
 12 14  1  0
 44 55  1  0
 27 28  2  0
 44 56  1  6
  1  5  1  0
  9 57  1  6
M  END

> <chembl_id>
CHEMBL224436

> <chembl_pref_name>
JOSAMYCIN

$$$$

     RDKit          2D

 35 38  0  0  0  0  0  0  0  0999 V2000
   10.3911  -16.8101    0.0000 C   0  0  0  0  0  0  0  0  0  0  0  0
   11.8131  -16.8197    0.0000 C   0  0  0  0  0  0  0  0  0  0  0  0
    8.9643  -16.8101    0.0000 C   0  0  0  0  0  0  0  0  0  0  0  0
    9.6729  -17.2226    0.0000 C   0  0  0  0  0  0  0  0  0  0  0  0
   11.0948  -17.2226    0.0000 C   0  0  0  0  0  0  0  0  0  0  0  0
   10.3960  -15.9851    0.0000 C   0  0  0  0  0  0  0  0  0  0  0  0
   11.8179  -15.9947    0.0000 C   0  0  0  0  0  0  0  0  0  0  0  0
    8.2461  -17.2226    0.0000 C   0  0  0  0  0  0  0  0  0  0  0  0
    7.5327  -16.8101    0.0000 C   0  0  0  0  0  0  0  0  0  0  0  0
    7.5327  -15.9802    0.0000 C   0  0  0  0  0  0  0  0  0  0  0  0
   11.1094  -15.5774    0.0000 C   0  0  0  0  0  0  0  0  0  0  0  0
    8.9643  -15.9802    0.0000 C   0  0  0  0  0  0  0  0  0  0  0  0
    9.6777  -15.5628    0.0000 C   0  0  0  0  0  0  0  0  0  0  0  0
    6.8193  -15.5676    0.0000 C   0  0  0  0  0  0  0  0  0  0  0  0
    8.2461  -15.5628    0.0000 C   0  0  0  0  0  0  0  0  0  0  0  0
   12.5265  -17.2323    0.0000 C   0  0  0  0  0  0  0  0  0  0  0  0
    6.1059  -15.9802    0.0000 C   0  0  0  0  0  0  0  0  0  0  0  0
    6.8193  -17.2226    0.0000 C   0  0  0  0  0  0  0  0  0  0  0  0
   11.0899  -18.0476    0.0000 O   0  0  0  0  0  0  0  0  0  0  0  0
    8.2412  -18.0476    0.0000 O   0  0  0  0  0  0  0  0  0  0  0  0
   11.1143  -14.7475    0.0000 N   0  0  0  0  0  0  0  0  0  0  0  0
    6.8193  -14.7426    0.0000 N   0  0  0  0  0  0  0  0  0  0  0  0
   10.3863  -17.6303    0.0000 O   0  0  0  0  0  0  0  0  0  0  0  0
   12.5216  -18.0525    0.0000 O   0  0  0  0  0  0  0  0  0  0  0  0
    9.6729  -18.0476    0.0000 O   0  0  0  0  0  0  0  0  0  0  0  0
   12.5362  -15.5871    0.0000 O   0  0  0  0  0  0  0  0  0  0  0  0
    6.1059  -16.8101    0.0000 C   0  0  0  0  0  0  0  0  0  0  0  0
   13.2399  -16.8197    0.0000 N   0  0  0  0  0  0  0  0  0  0  0  0
    6.8241  -18.0476    0.0000 O   0  0  0  0  0  0  0  0  0  0  0  0
   11.8325  -14.3399    0.0000 C   0  0  0  0  0  0  0  0  0  0  0  0
   10.4009  -14.3350    0.0000 C   0  0  0  0  0  0  0  0  0  0  0  0
    7.5327  -14.3301    0.0000 C   0  0  0  0  0  0  0  0  0  0  0  0
    6.1010  -14.3350    0.0000 C   0  0  0  0  0  0  0  0  0  0  0  0
   10.3863  -15.1552    0.0000 H   0  0  0  0  0  0  0  0  0  0  0  0
    8.9595  -15.1552    0.0000 H   0  0  0  0  0  0  0  0  0  0  0  0
  2  5  1  0
  3  4  2  0
  4  1  1  0
  5  1  1  0
  6  1  1  0
  7 11  1  0
  8  3  1  0
  9  8  1  0
 10 15  1  0
 11  6  1  0
 12 13  1  0
 13  6  1  0
 14 10  2  0
 15 12  1  0
 16  2  1  0
 17 14  1  0
 18  9  2  0
 19  5  2  0
 20  8  2  0
 11 21  1  6
 22 14  1  0
  1 23  1  6
 24 16  2  0
 25  4  1  0
 26  7  1  0
 27 18  1  0
 28 16  1  0
 29 18  1  0
 30 21  1  0
 31 21  1  0
 32 22  1  0
 33 22  1  0
  6 34  1  6
 12 35  1  6
  3 12  1  0
  7  2  2  0
  9 10  1  0
 27 17  2  0
M  END

> <chembl_id>
CHEMBL1434

> <chembl_pref_name>
MINOCYCLINE

$$$$

     RDKit          2D

 29 32  0  0  0  0  0  0  0  0999 V2000
   -2.0970  -20.2268    0.0000 O   0  0  0  0  0  0  0  0  0  0  0  0
   -0.8106  -16.0670    0.0000 C   0  0  0  0  0  0  0  0  0  0  0  0
   -1.5251  -16.4795    0.0000 C   0  0  0  0  0  0  0  0  0  0  0  0
   -1.5251  -17.3045    0.0000 C   0  0  0  0  0  0  0  0  0  0  0  0
   -0.8106  -17.7170    0.0000 C   0  0  0  0  0  0  0  0  0  0  0  0
   -0.0961  -17.3045    0.0000 C   0  0  0  0  0  0  0  0  0  0  0  0
   -0.0961  -16.4795    0.0000 C   0  0  0  0  0  0  0  0  0  0  0  0
    0.6184  -16.0670    0.0000 C   0  0  0  0  0  0  0  0  0  0  0  0
    1.3329  -16.4795    0.0000 C   0  0  0  0  0  0  0  0  0  0  0  0
    1.3329  -17.3045    0.0000 C   0  0  0  0  0  0  0  0  0  0  0  0
    0.6184  -17.7170    0.0000 N   0  0  0  0  0  0  0  0  0  0  0  0
    0.6184  -15.2420    0.0000 O   0  0  0  0  0  0  0  0  0  0  0  0
    2.0474  -16.0670    0.0000 C   0  0  0  0  0  0  0  0  0  0  0  0
    2.7618  -16.4794    0.0000 O   0  0  0  0  0  0  0  0  0  0  0  0
    2.0474  -15.2420    0.0000 O   0  0  0  0  0  0  0  0  0  0  0  0
   -2.2395  -16.0670    0.0000 F   0  0  0  0  0  0  0  0  0  0  0  0
   -2.2395  -17.7170    0.0000 N   0  0  0  0  0  0  0  0  0  0  0  0
   -2.9932  -17.3815    0.0000 C   0  0  0  0  0  0  0  0  0  0  0  0
   -3.5452  -17.9945    0.0000 C   0  0  0  0  0  0  0  0  0  0  0  0
   -3.1327  -18.7090    0.0000 C   0  0  0  0  0  0  0  0  0  0  0  0
   -2.3258  -18.5375    0.0000 C   0  0  0  0  0  0  0  0  0  0  0  0
   -4.1285  -17.4112    0.0000 C   0  0  0  0  0  0  0  0  0  0  0  0
   -4.3420  -18.2081    0.0000 C   0  0  0  0  0  0  0  0  0  0  0  0
   -3.4682  -19.4627    0.0000 N   0  0  0  0  0  0  0  0  0  0  0  0
    0.6184  -18.5420    0.0000 C   0  0  0  0  0  0  0  0  0  0  0  0
   -0.8106  -18.5420    0.0000 Cl  0  0  0  0  0  0  0  0  0  0  0  0
    0.2060  -19.2565    0.0000 C   0  0  0  0  0  0  0  0  0  0  0  0
    1.0309  -19.2565    0.0000 C   0  0  0  0  0  0  0  0  0  0  0  0
    1.7454  -19.6690    0.0000 F   0  0  0  0  0  0  0  0  0  0  0  0
  2  3  2  0
  2  7  1  0
  3  4  1  0
  4  5  2  0
  5  6  1  0
 11  6  1  0
  6  7  2  0
  7  8  1  0
  8  9  1  0
  9 10  2  0
 10 11  1  0
  8 12  2  0
  9 13  1  0
 13 14  1  0
 13 15  2  0
  3 16  1  0
  4 17  1  0
 17 18  1  0
 17 21  1  0
 18 19  1  0
 19 20  1  0
 20 21  1  0
 23 19  1  0
 19 22  1  0
 22 23  1  0
 20 24  1  1
 25 11  1  1
  5 26  1  0
 25 27  1  0
 28 25  1  0
 27 28  1  0
 28 29  1  1
M  END

> <chembl_id>
CHEMBL3989504

> <chembl_pref_name>
SITAFLOXACIN

$$$$

     RDKit          2D

133145  0  0  0  0  0  0  0  0999 V2000
    4.0765   -9.1840    0.0000 C   0  0  0  0  0  0  0  0  0  0  0  0
    3.5884   -9.8537    0.0000 C   0  0  0  0  0  0  0  0  0  0  0  0
    3.9565  -10.5948    0.0000 C   0  0  0  0  0  0  0  0  0  0  0  0
    4.7866  -10.6635    0.0000 C   0  0  0  0  0  0  0  0  0  0  0  0
    5.2461   -9.9689    0.0000 C   0  0  0  0  0  0  0  0  0  0  0  0
    4.9043   -9.2180    0.0000 C   0  0  0  0  0  0  0  0  0  0  0  0
    2.8130   -9.5367    0.0000 O   0  0  0  0  0  0  0  0  0  0  0  0
    3.4975  -11.2714    0.0000 O   0  0  0  0  0  0  0  0  0  0  0  0
    5.3047  -11.3195    0.0000 O   0  0  0  0  0  0  0  0  0  0  0  0
    5.4694   -8.5893    0.0000 C   0  0  0  0  0  0  0  0  0  0  0  0
    6.2963   -8.4723    0.0000 C   0  0  0  0  0  0  0  0  0  0  0  0
    5.1674   -7.8100    0.0000 N   0  0  0  0  0  0  0  0  0  0  0  0
    5.0875   -6.9856    0.0000 C   0  0  0  0  0  0  0  0  0  0  0  0
    5.0173   -6.1545    0.0000 C   0  0  0  0  0  0  0  0  0  0  0  0
    4.2733   -7.0596    0.0000 O   0  0  0  0  0  0  0  0  0  0  0  0
    4.2045   -5.9560    0.0000 N   0  0  0  0  0  0  0  0  0  0  0  0
    5.7786   -5.7810    0.0000 C   0  0  0  0  0  0  0  0  0  0  0  0
    6.4925   -6.2065    0.0000 C   0  0  0  0  0  0  0  0  0  0  0  0
    7.2226   -5.8288    0.0000 C   0  0  0  0  0  0  0  0  0  0  0  0
    7.2579   -5.0079    0.0000 C   0  0  0  0  0  0  0  0  0  0  0  0
    6.5671   -4.5532    0.0000 C   0  0  0  0  0  0  0  0  0  0  0  0
    5.8388   -4.9541    0.0000 C   0  0  0  0  0  0  0  0  0  0  0  0
    3.3801   -6.0775    0.0000 C   0  0  0  0  0  0  0  0  0  0  0  0
    2.5773   -5.8171    0.0000 C   0  0  0  0  0  0  0  0  0  0  0  0
    3.3118   -6.8922    0.0000 O   0  0  0  0  0  0  0  0  0  0  0  0
    2.6956   -4.9758    0.0000 N   0  0  0  0  0  0  0  0  0  0  0  0
    1.9897   -6.4396    0.0000 C   0  0  0  0  0  0  0  0  0  0  0  0
    1.8359   -7.2833    0.0000 C   0  0  0  0  0  0  0  0  0  0  0  0
    2.6177   -7.5563    0.0000 C   0  0  0  0  0  0  0  0  0  0  0  0
    2.8060   -8.3510    0.0000 C   0  0  0  0  0  0  0  0  0  0  0  0
    2.2198   -8.9360    0.0000 C   0  0  0  0  0  0  0  0  0  0  0  0
    1.4232   -8.6879    0.0000 C   0  0  0  0  0  0  0  0  0  0  0  0
    1.2444   -7.8764    0.0000 C   0  0  0  0  0  0  0  0  0  0  0  0
    2.6821  -11.2120    0.0000 C   0  0  0  0  0  0  0  0  0  0  0  0
    2.2231  -11.8885    0.0000 C   0  0  0  0  0  0  0  0  0  0  0  0
    1.4076  -11.8293    0.0000 C   0  0  0  0  0  0  0  0  0  0  0  0
    1.0512  -11.0935    0.0000 C   0  0  0  0  0  0  0  0  0  0  0  0
    1.5103  -10.4169    0.0000 C   0  0  0  0  0  0  0  0  0  0  0  0
    2.3257  -10.4762    0.0000 O   0  0  0  0  0  0  0  0  0  0  0  0
    2.5794  -12.6244    0.0000 N   0  0  0  0  0  0  0  0  0  0  0  0
    0.9486  -12.5058    0.0000 O   0  0  0  0  0  0  0  0  0  0  0  0
    0.2359  -11.0342    0.0000 O   0  0  0  0  0  0  0  0  0  0  0  0
    1.1539   -9.6811    0.0000 C   0  0  0  0  0  0  0  0  0  0  0  0
    1.6130   -9.0046    0.0000 O   0  0  0  0  0  0  0  0  0  0  0  0
    0.3385   -9.6219    0.0000 O   0  0  0  0  0  0  0  0  0  0  0  0
    2.1203  -13.3009    0.0000 C   0  0  0  0  0  0  0  0  0  0  0  0
    2.4767  -14.0367    0.0000 C   0  0  0  0  0  0  0  0  0  0  0  0
    1.3049  -13.2416    0.0000 O   0  0  0  0  0  0  0  0  0  0  0  0
    2.0176  -14.7132    0.0000 C   0  0  0  0  0  0  0  0  0  0  0  0
    2.3740  -15.4491    0.0000 C   0  0  0  0  0  0  0  0  0  0  0  0
    1.9150  -16.1256    0.0000 C   0  0  0  0  0  0  0  0  0  0  0  0
    2.2713  -16.8614    0.0000 C   0  0  0  0  0  0  0  0  0  0  0  0
    1.8123  -17.5378    0.0000 C   0  0  0  0  0  0  0  0  0  0  0  0
    0.9969  -17.4786    0.0000 C   0  0  0  0  0  0  0  0  0  0  0  0
    0.6406  -16.7428    0.0000 C   0  0  0  0  0  0  0  0  0  0  0  0
   -0.1749  -16.6835    0.0000 C   0  0  0  0  0  0  0  0  0  0  0  0
   -0.5313  -15.9477    0.0000 C   0  0  0  0  0  0  0  0  0  0  0  0
   -0.6339  -17.3601    0.0000 C   0  0  0  0  0  0  0  0  0  0  0  0
    3.1833   -4.2970    0.0000 C   0  0  0  0  0  0  0  0  0  0  0  0
    3.6565   -3.6139    0.0000 C   0  0  0  0  0  0  0  0  0  0  0  0
    3.0785   -3.0358    0.0000 N   0  0  0  0  0  0  0  0  0  0  0  0
    2.2888   -3.2473    0.0000 C   0  0  0  0  0  0  0  0  0  0  0  0
    4.3462   -3.1364    0.0000 C   0  0  0  0  0  0  0  0  0  0  0  0
    5.0505   -3.5756    0.0000 C   0  0  0  0  0  0  0  0  0  0  0  0
    5.8008   -3.2154    0.0000 C   0  0  0  0  0  0  0  0  0  0  0  0
    5.8339   -2.3870    0.0000 C   0  0  0  0  0  0  0  0  0  0  0  0
    5.1457   -1.9328    0.0000 C   0  0  0  0  0  0  0  0  0  0  0  0
    4.4092   -2.3061    0.0000 C   0  0  0  0  0  0  0  0  0  0  0  0
    6.4681   -7.0238    0.0000 Cl  0  0  0  0  0  0  0  0  0  0  0  0
    7.9117   -6.2687    0.0000 O   0  0  0  0  0  0  0  0  0  0  0  0
    6.0721  -11.6492    0.0000 C   0  0  0  0  0  0  0  0  0  0  0  0
    6.4816  -12.3679    0.0000 C   0  0  0  0  0  0  0  0  0  0  0  0
    7.3083  -12.3889    0.0000 C   0  0  0  0  0  0  0  0  0  0  0  0
    7.7481  -11.6795    0.0000 C   0  0  0  0  0  0  0  0  0  0  0  0
    7.3262  -10.9649    0.0000 C   0  0  0  0  0  0  0  0  0  0  0  0
    6.5105  -10.9493    0.0000 C   0  0  0  0  0  0  0  0  0  0  0  0
    6.0620  -13.0695    0.0000 Cl  0  0  0  0  0  0  0  0  0  0  0  0
    8.4935  -11.2833    0.0000 C   0  0  0  0  0  0  0  0  0  0  0  0
    8.8065  -10.5003    0.0000 C   0  0  0  0  0  0  0  0  0  0  0  0
    9.1021  -11.8294    0.0000 O   0  0  0  0  0  0  0  0  0  0  0  0
    9.6313  -10.6516    0.0000 C   0  0  0  0  0  0  0  0  0  0  0  0
    8.3978   -9.7600    0.0000 N   0  0  0  0  0  0  0  0  0  0  0  0
    7.0274   -8.0838    0.0000 N   0  0  0  0  0  0  0  0  0  0  0  0
    6.5492   -9.2498    0.0000 O   0  0  0  0  0  0  0  0  0  0  0  0
    7.8492   -8.2411    0.0000 C   0  0  0  0  0  0  0  0  0  0  0  0
    7.9064   -9.0824    0.0000 C   0  0  0  0  0  0  0  0  0  0  0  0
    7.1378   -9.3609    0.0000 O   0  0  0  0  0  0  0  0  0  0  0  0
   10.3481  -10.2366    0.0000 N   0  0  0  0  0  0  0  0  0  0  0  0
    9.7710  -11.4572    0.0000 O   0  0  0  0  0  0  0  0  0  0  0  0
   10.4737   -9.4217    0.0000 C   0  0  0  0  0  0  0  0  0  0  0  0
    8.4986   -7.6872    0.0000 C   0  0  0  0  0  0  0  0  0  0  0  0
    9.2706   -7.9917    0.0000 C   0  0  0  0  0  0  0  0  0  0  0  0
    9.9479   -7.5107    0.0000 C   0  0  0  0  0  0  0  0  0  0  0  0
    9.8440   -6.6875    0.0000 C   0  0  0  0  0  0  0  0  0  0  0  0
    9.0912   -6.3585    0.0000 C   0  0  0  0  0  0  0  0  0  0  0  0
    8.4353   -6.8579    0.0000 C   0  0  0  0  0  0  0  0  0  0  0  0
   10.6682   -7.9336    0.0000 C   0  0  0  0  0  0  0  0  0  0  0  0
   10.9096   -8.7147    0.0000 C   0  0  0  0  0  0  0  0  0  0  0  0
   11.7067   -8.8963    0.0000 C   0  0  0  0  0  0  0  0  0  0  0  0
   12.2625   -8.2967    0.0000 C   0  0  0  0  0  0  0  0  0  0  0  0
   12.0211   -7.5156    0.0000 C   0  0  0  0  0  0  0  0  0  0  0  0
   11.2240   -7.3341    0.0000 C   0  0  0  0  0  0  0  0  0  0  0  0
   11.2409   -9.7041    0.0000 C   0  0  0  0  0  0  0  0  0  0  0  0
   11.8691   -9.1809    0.0000 O   0  0  0  0  0  0  0  0  0  0  0  0
   11.3799  -10.5098    0.0000 N   0  0  0  0  0  0  0  0  0  0  0  0
   12.1471  -10.7922    0.0000 C   0  0  0  0  0  0  0  0  0  0  0  0
   12.2861  -11.5979    0.0000 C   0  0  0  0  0  0  0  0  0  0  0  0
   13.0533  -11.8803    0.0000 C   0  0  0  0  0  0  0  0  0  0  0  0
   13.1924  -12.6860    0.0000 N   0  0  0  0  0  0  0  0  0  0  0  0
   13.9596  -12.9684    0.0000 C   0  0  0  0  0  0  0  0  0  0  0  0
   12.5641  -13.2092    0.0000 C   0  0  0  0  0  0  0  0  0  0  0  0
   13.0597   -8.4783    0.0000 O   0  0  0  0  0  0  0  0  0  0  0  0
   10.9827   -6.5529    0.0000 O   0  0  0  0  0  0  0  0  0  0  0  0
   11.5384   -5.9533    0.0000 C   0  0  0  0  0  0  0  0  0  0  0  0
   12.3356   -6.1349    0.0000 O   0  0  0  0  0  0  0  0  0  0  0  0
   12.8914   -5.5353    0.0000 C   0  0  0  0  0  0  0  0  0  0  0  0
   12.6500   -4.7541    0.0000 C   0  0  0  0  0  0  0  0  0  0  0  0
   11.8529   -4.5726    0.0000 C   0  0  0  0  0  0  0  0  0  0  0  0
   11.2971   -5.1722    0.0000 C   0  0  0  0  0  0  0  0  0  0  0  0
   10.4988   -6.1978    0.0000 O   0  0  0  0  0  0  0  0  0  0  0  0
   10.5000   -4.9907    0.0000 O   0  0  0  0  0  0  0  0  0  0  0  0
   11.6116   -3.7915    0.0000 O   0  0  0  0  0  0  0  0  0  0  0  0
   13.2059   -4.1546    0.0000 O   0  0  0  0  0  0  0  0  0  0  0  0
   13.6886   -5.7169    0.0000 C   0  0  0  0  0  0  0  0  0  0  0  0
   14.2443   -5.1172    0.0000 O   0  0  0  0  0  0  0  0  0  0  0  0
    3.8513   -4.7683    0.0000 O   0  0  0  0  0  0  0  0  0  0  0  0
    7.6402   -7.4508    0.0000 H   0  0  0  0  0  0  0  0  0  0  0  0
    9.2018  -11.2160    0.0000 H   0  0  0  0  0  0  0  0  0  0  0  0
    1.8404   -5.4629    0.0000 H   0  0  0  0  0  0  0  0  0  0  0  0
    5.7287   -6.5573    0.0000 H   0  0  0  0  0  0  0  0  0  0  0  0
    5.8830   -7.8840    0.0000 H   0  0  0  0  0  0  0  0  0  0  0  0
    6.4681   -3.7225    0.0000 O   0  0  0  0  0  0  0  0  0  0  0  0
    6.5614   -2.0140    0.0000 O   0  0  0  0  0  0  0  0  0  0  0  0
  1  2  1  0
  1  6  2  0
  2  3  2  0
  3  4  1  0
  4  5  2  0
  5  6  1  0
  2  7  1  0
  3  8  1  0
  4  9  1  0
  6 10  1  0
 10 11  1  0
 10 12  1  0
 12 13  1  0
 13 14  1  0
 13 15  2  0
 14 16  1  0
 14 17  1  0
 17 18  1  0
 17 22  2  0
 18 19  2  0
 19 20  1  0
 20 21  2  0
 21 22  1  0
 16 23  1  0
 23 24  1  0
 23 25  2  0
 24 26  1  0
 24 27  1  0
 27 28  1  0
 28 29  1  0
 28 33  2  0
 29 30  2  0
 30 31  1  0
 31 32  2  0
 32 33  1  0
 31  7  1  0
 34  8  1  1
 34 35  1  0
 39 34  1  0
 35 36  1  0
 36 37  1  0
 37 38  1  0
 38 39  1  0
 35 40  1  6
 36 41  1  1
 37 42  1  6
 38 43  1  1
 43 44  2  0
 43 45  1  0
 40 46  1  0
 46 47  1  0
 46 48  2  0
 47 49  1  0
 49 50  1  0
 50 51  1  0
 51 52  1  0
 52 53  1  0
 53 54  1  0
 54 55  1  0
 55 56  1  0
 56 57  1  0
 56 58  1  0
 26 59  1  0
 59 60  1  0
 60 61  1  6
 61 62  1  0
 60 63  1  0
 63 64  1  0
 63 68  2  0
 64 65  2  0
 65 66  1  0
 66 67  2  0
 67 68  1  0
 18 69  1  0
 19 70  1  0
  9 71  1  0
 71 72  1  0
 71 76  2  0
 72 73  2  0
 73 74  1  0
 74 75  2  0
 75 76  1  0
 72 77  1  0
 74 78  1  0
 78 79  1  0
 78 80  1  6
 79 81  1  0
 79 82  1  0
 11 83  1  0
 11 84  2  0
 85 83  1  0
 85 86  1  0
 86 82  1  0
 86 87  2  0
 81 88  1  0
 81 89  2  0
 88 90  1  0
 85 91  1  0
 91 92  1  0
 91 96  2  0
 92 93  2  0
 93 94  1  0
 94 95  2  0
 95 96  1  0
 93 97  1  0
 97 98  1  0
 97102  2  0
 98 99  2  0
 99100  1  0
100101  2  0
101102  1  0
 90 98  1  0
 90103  1  6
103104  2  0
103105  1  0
105106  1  0
106107  1  0
107108  1  0
108109  1  0
109110  1  0
109111  1  0
100112  1  0
102113  1  0
114113  1  6
114115  1  0
119114  1  0
115116  1  0
116117  1  0
117118  1  0
118119  1  0
 94120  1  0
119121  1  1
118122  1  1
117123  1  6
116124  1  1
124125  1  0
 59126  2  0
 85127  1  1
 79128  1  1
 24129  1  6
 14130  1  6
 10131  1  6
 21132  1  0
 66133  1  0
 65132  1  0
M  END

> <chembl_id>
CHEMBL3301669

> <chembl_pref_name>
DALBAVANCIN

$$$$

     RDKit          2D

 34 37  0  0  1  0  0  0  0  0999 V2000
    0.9167   -1.1542    0.0000 N   0  0  0  0  0  0  0  0  0  0  0  0
    0.0792   -1.1542    0.0000 C   0  0  0  0  0  0  0  0  0  0  0  0
    0.0792   -0.4792    0.0000 C   0  0  0  0  0  0  0  0  0  0  0  0
    0.9167   -0.4792    0.0000 C   0  0  0  0  0  0  0  0  0  0  0  0
    4.0292   -1.5417    0.0000 C   0  0  0  0  0  0  0  0  0  0  0  0
    1.5417   -1.5417    0.0000 C   0  0  0  0  0  0  0  0  0  0  0  0
   -2.3833   -0.5125    0.0000 C   0  0  0  0  0  0  0  0  0  0  0  0
    4.5917   -1.1167    0.0000 N   0  0  0  0  0  0  0  0  0  0  0  0
    4.2417   -2.2125    0.0000 N   0  0  0  0  0  0  0  0  0  0  0  0
    4.9667   -2.2125    0.0000 N   0  0  0  0  0  0  0  0  0  0  0  0
   -1.7958   -0.1542    0.0000 C   0  0  0  0  0  0  0  0  0  0  0  0
   -2.9708   -0.1292    0.0000 N   0  0  0  0  0  0  0  0  0  0  0  0
    5.1667   -1.5417    0.0000 N   0  0  0  0  0  0  0  0  0  0  0  0
   -0.5833   -0.1292    0.0000 N   0  0  0  0  0  0  0  0  0  0  0  0
   -1.1958   -0.4792    0.0000 C   0  0  0  0  0  0  0  0  0  0  0  0
    1.5417   -0.1417    0.0000 S   0  0  0  0  0  0  0  0  0  0  0  0
    2.1667   -1.1542    0.0000 C   0  0  0  0  0  0  0  0  0  0  0  0
   -3.5333   -0.5125    0.0000 C   0  0  0  0  0  0  0  0  0  0  0  0
   -2.5958   -1.2125    0.0000 C   0  0  0  0  0  0  0  0  0  0  0  0
   -3.3333   -1.2125    0.0000 S   0  0  0  0  0  0  0  0  0  0  0  0
    1.5417   -2.2292    0.0000 C   0  0  0  0  0  0  0  0  0  0  0  0
    3.4042   -1.1667    0.0000 S   0  0  0  0  0  0  0  0  0  0  0  0
    2.1667   -0.4792    0.0000 C   0  0  0  0  0  0  0  0  0  0  0  0
   -1.7958    0.5208    0.0000 N   0  0  0  0  0  0  0  0  0  0  0  0
   -0.4083   -1.4875    0.0000 O   0  0  0  0  0  0  0  0  0  0  0  0
    2.7917   -1.5292    0.0000 C   0  0  0  0  0  0  0  0  0  0  0  0
   -1.1958   -1.1917    0.0000 O   0  0  0  0  0  0  0  0  0  0  0  0
    0.9042   -2.5917    0.0000 O   0  0  0  0  0  0  0  0  0  0  0  0
   -4.1708   -0.1292    0.0000 N   0  0  0  0  0  0  0  0  0  0  0  0
    4.5917   -0.4167    0.0000 C   0  0  0  0  0  0  0  0  0  0  0  0
    2.1542   -2.6000    0.0000 O   0  0  0  0  0  0  0  0  0  0  0  0
   -1.2208    0.8708    0.0000 O   0  0  0  0  0  0  0  0  0  0  0  0
   -1.2208    1.5583    0.0000 C   0  0  0  0  0  0  0  0  0  0  0  0
    0.9167    0.2250    0.0000 H   0  0  0  0  0  0  0  0  0  0  0  0
  2  1  1  0
  3  4  1  0
  4  1  1  0
  5 22  1  0
  6  1  1  0
  7 11  1  0
  8  5  1  0
  9  5  2  0
 10  9  1  0
 11 15  1  0
 12  7  1  0
 13  8  1  0
  3 14  1  1
 15 14  1  0
 16  4  1  0
 17  6  2  0
 18 12  2  0
 19  7  2  0
 20 19  1  0
 21  6  1  0
 22 26  1  0
 23 17  1  0
 24 11  2  0
 25  2  2  0
 26 17  1  0
 27 15  2  0
 28 21  2  0
 29 18  1  0
 30  8  1  0
 31 21  1  0
 32 24  1  0
 33 32  1  0
  4 34  1  6
  2  3  1  0
 16 23  1  0
 13 10  2  0
 20 18  1  0
M  END

> <chembl_id>
CHEMBL1201224

> <chembl_pref_name>
CEFMENOXIME

$$$$

     RDKit          2D

 36 39  0  0  0  0  0  0  0  0999 V2000
    1.8917   -3.6875    0.0000 N   0  0  0  0  0  0  0  0  0  0  0  0
    1.1792   -3.6875    0.0000 C   0  0  0  0  0  0  0  0  0  0  0  0
    1.8917   -2.9750    0.0000 C   0  0  0  0  0  0  0  0  0  0  0  0
    1.1792   -2.9750    0.0000 C   0  0  0  0  0  0  0  0  0  0  0  0
    5.5667   -3.5500    0.0000 N   0  0  0  0  0  0  0  0  0  0  0  0
    5.0042   -3.9792    0.0000 C   0  0  0  0  0  0  0  0  0  0  0  0
    2.5167   -4.0417    0.0000 C   0  0  0  0  0  0  0  0  0  0  0  0
    5.2292   -4.6542    0.0000 N   0  0  0  0  0  0  0  0  0  0  0  0
    5.9125   -4.6417    0.0000 N   0  0  0  0  0  0  0  0  0  0  0  0
    6.1375   -3.9667    0.0000 N   0  0  0  0  0  0  0  0  0  0  0  0
    2.5167   -2.6167    0.0000 S   0  0  0  0  0  0  0  0  0  0  0  0
    3.1292   -3.6875    0.0000 C   0  0  0  0  0  0  0  0  0  0  0  0
    5.5500   -2.8417    0.0000 C   0  0  0  0  0  0  0  0  0  0  0  0
    0.5667   -2.5917    0.0000 N   0  0  0  0  0  0  0  0  0  0  0  0
    2.5167   -4.7542    0.0000 C   0  0  0  0  0  0  0  0  0  0  0  0
   -0.0583   -2.9292    0.0000 C   0  0  0  0  0  0  0  0  0  0  0  0
    4.3792   -3.6417    0.0000 S   0  0  0  0  0  0  0  0  0  0  0  0
    3.1292   -2.9750    0.0000 C   0  0  0  0  0  0  0  0  0  0  0  0
    4.9417   -2.4792    0.0000 C   0  0  0  0  0  0  0  0  0  0  0  0
    0.6792   -4.1875    0.0000 O   0  0  0  0  0  0  0  0  0  0  0  0
    3.7667   -4.0417    0.0000 C   0  0  0  0  0  0  0  0  0  0  0  0
   -1.2708   -2.8542    0.0000 C   0  0  0  0  0  0  0  0  0  0  0  0
   -0.6458   -2.5292    0.0000 C   0  0  0  0  0  0  0  0  0  0  0  0
    1.9042   -5.1167    0.0000 O   0  0  0  0  0  0  0  0  0  0  0  0
   -0.0958   -3.6125    0.0000 O   0  0  0  0  0  0  0  0  0  0  0  0
    4.9417   -1.7667    0.0000 O   0  0  0  0  0  0  0  0  0  0  0  0
   -1.8875   -2.4917    0.0000 C   0  0  0  0  0  0  0  0  0  0  0  0
    3.1417   -5.1167    0.0000 O   0  0  0  0  0  0  0  0  0  0  0  0
    4.3000   -2.8000    0.0000 O   0  0  0  0  0  0  0  0  0  0  0  0
   -1.2583   -1.4042    0.0000 N   0  0  0  0  0  0  0  0  0  0  0  0
   -1.8875   -1.7625    0.0000 C   0  0  0  0  0  0  0  0  0  0  0  0
   -1.3083   -3.5500    0.0000 C   0  0  0  0  0  0  0  0  0  0  0  0
   -2.5083   -2.8167    0.0000 C   0  0  0  0  0  0  0  0  0  0  0  0
   -1.9250   -3.8917    0.0000 C   0  0  0  0  0  0  0  0  0  0  0  0
   -2.5208   -3.5292    0.0000 C   0  0  0  0  0  0  0  0  0  0  0  0
    1.8917   -2.2542    0.0000 H   0  0  0  0  0  0  0  0  0  0  0  0
  2  1  1  0
  3  1  1  0
  4  3  1  0
  5  6  1  0
  6 17  1  0
  7  1  1  0
  8  6  2  0
  9  8  1  0
 10  5  1  0
 11  3  1  0
 12  7  2  0
 13  5  1  0
  4 14  1  1
 15  7  1  0
 16 14  1  0
 17 21  1  0
 18 12  1  0
 19 13  1  0
 20  2  2  0
 21 12  1  0
 22 23  1  0
 23 16  1  0
 24 15  2  0
 25 16  2  0
 26 19  2  0
 27 22  1  0
 28 15  1  0
 29 19  1  0
 30 31  1  0
 31 27  1  0
 32 22  2  0
 33 27  2  0
 34 32  1  0
 35 34  2  0
  3 36  1  6
  4  2  1  0
 18 11  1  0
  9 10  2  0
 35 33  1  0
M  END

> <chembl_id>
CHEMBL1201046

> <chembl_pref_name>
CEFORANIDE

$$$$

     RDKit          2D

 29 32  0  0  1  0  0  0  0  0999 V2000
    1.6042   -2.5625    0.0000 N   0  0  0  0  0  0  0  0  0  0  0  0
    1.6042   -1.8500    0.0000 C   0  0  0  0  0  0  0  0  0  0  0  0
    0.8917   -2.5625    0.0000 C   0  0  0  0  0  0  0  0  0  0  0  0
    0.8917   -1.8500    0.0000 C   0  0  0  0  0  0  0  0  0  0  0  0
   -0.9583   -1.5417    0.0000 C   0  0  0  0  0  0  0  0  0  0  0  0
    2.2792   -2.7875    0.0000 C   0  0  0  0  0  0  0  0  0  0  0  0
    2.2792   -1.6375    0.0000 S   0  0  0  0  0  0  0  0  0  0  0  0
   -0.3208   -1.8792    0.0000 C   0  0  0  0  0  0  0  0  0  0  0  0
    2.7042   -2.2125    0.0000 C   0  0  0  0  0  0  0  0  0  0  0  0
   -1.8750   -0.8542    0.0000 N   0  0  0  0  0  0  0  0  0  0  0  0
    0.2792   -1.5125    0.0000 N   0  0  0  0  0  0  0  0  0  0  0  0
   -1.1708   -0.8542    0.0000 C   0  0  0  0  0  0  0  0  0  0  0  0
   -2.0958   -1.5375    0.0000 O   0  0  0  0  0  0  0  0  0  0  0  0
   -1.5333   -1.9542    0.0000 C   0  0  0  0  0  0  0  0  0  0  0  0
    2.2875   -3.5042    0.0000 C   0  0  0  0  0  0  0  0  0  0  0  0
    0.4042   -3.0750    0.0000 O   0  0  0  0  0  0  0  0  0  0  0  0
   -0.3125   -2.5792    0.0000 O   0  0  0  0  0  0  0  0  0  0  0  0
    2.9042   -3.8542    0.0000 O   0  0  0  0  0  0  0  0  0  0  0  0
   -0.5583   -0.5000    0.0000 C   0  0  0  0  0  0  0  0  0  0  0  0
    1.6792   -3.8625    0.0000 O   0  0  0  0  0  0  0  0  0  0  0  0
    3.3167   -2.5667    0.0000 C   0  0  0  0  0  0  0  0  0  0  0  0
    3.3167   -1.8542    0.0000 C   0  0  0  0  0  0  0  0  0  0  0  0
   -1.5333   -2.6542    0.0000 C   0  0  0  0  0  0  0  0  0  0  0  0
    0.0667   -0.8542    0.0000 C   0  0  0  0  0  0  0  0  0  0  0  0
   -0.5708    0.2208    0.0000 C   0  0  0  0  0  0  0  0  0  0  0  0
    0.6667   -0.4917    0.0000 C   0  0  0  0  0  0  0  0  0  0  0  0
    0.0542    0.5708    0.0000 C   0  0  0  0  0  0  0  0  0  0  0  0
    0.6667    0.2208    0.0000 C   0  0  0  0  0  0  0  0  0  0  0  0
    1.6042   -1.1375    0.0000 H   0  0  0  0  0  0  0  0  0  0  0  0
  2  1  1  0
  3  1  1  0
  4  2  1  0
  5  8  1  0
  6  1  1  0
  7  2  1  0
  8 11  1  0
  9  6  1  0
 10 12  2  0
  4 11  1  1
 12  5  1  0
 13 14  1  0
 14  5  2  0
  6 15  1  6
 16  3  2  0
 17  8  2  0
 18 15  1  0
 19 12  1  0
 20 15  2  0
 21  9  1  0
 22  9  1  0
 23 14  1  0
 24 19  2  0
 25 19  1  0
 26 24  1  0
 27 25  2  0
 28 26  2  0
  2 29  1  6
  3  4  1  0
  9  7  1  0
 13 10  1  0
 28 27  1  0
M  END

> <chembl_id>
CHEMBL819

> <chembl_pref_name>
OXACILLIN

$$$$

     RDKit          2D

 43 47  0  0  0  0  0  0  0  0999 V2000
    4.3021   -2.3551    0.0000 C   0  0  0  0  0  0  0  0  0  0  0  0
    5.0174   -2.7652    0.0000 C   0  0  0  0  0  0  0  0  0  0  0  0
    4.3045   -1.5292    0.0000 C   0  0  0  0  0  0  0  0  0  0  0  0
    3.5766   -1.1133    0.0000 N   0  0  0  0  0  0  0  0  0  0  0  0
    5.0184   -1.1115    0.0000 C   0  0  0  0  0  0  0  0  0  0  0  0
    5.0105   -0.4021    0.0000 O   0  0  0  0  0  0  0  0  0  0  0  0
    5.7328   -1.5242    0.0000 C   0  0  0  0  0  0  0  0  0  0  0  0
    6.4427   -0.2842    0.0000 O   0  0  0  0  0  0  0  0  0  0  0  0
    6.4514   -1.1613    0.0000 C   0  0  0  0  0  0  0  0  0  0  0  0
    7.1411   -1.5251    0.0000 C   0  0  0  0  0  0  0  0  0  0  0  0
    7.8726   -1.1494    0.0000 C   0  0  0  0  0  0  0  0  0  0  0  0
    8.5675   -1.5142    0.0000 C   0  0  0  0  0  0  0  0  0  0  0  0
    9.2851   -0.2842    0.0000 O   0  0  0  0  0  0  0  0  0  0  0  0
    9.2937   -1.1613    0.0000 C   0  0  0  0  0  0  0  0  0  0  0  0
   10.7062   -0.2842    0.0000 O   0  0  0  0  0  0  0  0  0  0  0  0
   10.7405   -1.1357    0.0000 C   0  0  0  0  0  0  0  0  0  0  0  0
   11.5945   -1.5160    0.0000 N   0  0  0  0  0  0  0  0  0  0  0  0
    9.9842   -1.5307    0.0000 C   0  0  0  0  0  0  0  0  0  0  0  0
    9.9963   -2.3504    0.0000 C   0  0  0  0  0  0  0  0  0  0  0  0
   10.8957   -2.7476    0.0000 O   0  0  0  0  0  0  0  0  0  0  0  0
    8.6190   -2.3697    0.0000 C   0  0  0  0  0  0  0  0  0  0  0  0
    9.2895   -2.7656    0.0000 C   0  0  0  0  0  0  0  0  0  0  0  0
    7.8749   -2.7500    0.0000 C   0  0  0  0  0  0  0  0  0  0  0  0
    7.1999   -2.3809    0.0000 C   0  0  0  0  0  0  0  0  0  0  0  0
    7.1533   -3.1740    0.0000 H   0  0  0  0  0  0  0  0  0  0  0  0
    5.7354   -2.3742    0.0000 C   0  0  0  0  0  0  0  0  0  0  0  0
    6.4536   -2.7500    0.0000 C   0  0  0  0  0  0  0  0  0  0  0  0
    5.0215   -3.5766    0.0000 F   0  0  0  0  0  0  0  0  0  0  0  0
    0.1362   -1.7905    0.0000 C   0  0  0  0  0  0  0  0  0  0  0  0
    0.6863   -1.1690    0.0000 C   0  0  0  0  0  0  0  0  0  0  0  0
    1.4212   -1.5160    0.0000 N   0  0  0  0  0  0  0  0  0  0  0  0
    1.3709   -2.3415    0.0000 C   0  0  0  0  0  0  0  0  0  0  0  0
    0.5595   -2.5289    0.0000 C   0  0  0  0  0  0  0  0  0  0  0  0
    2.8841   -1.5088    0.0000 C   0  0  0  0  0  0  0  0  0  0  0  0
    2.8661   -2.3450    0.0000 O   0  0  0  0  0  0  0  0  0  0  0  0
    2.1608   -1.1003    0.0000 C   0  0  0  0  0  0  0  0  0  0  0  0
    9.6878   -3.5766    0.0000 N   0  0  0  0  0  0  0  0  0  0  0  0
    9.6903   -4.5524    0.0000 C   0  0  0  0  0  0  0  0  0  0  0  0
   10.3703   -3.7240    0.0000 C   0  0  0  0  0  0  0  0  0  0  0  0
    8.8824   -3.5766    0.0000 H   0  0  0  0  0  0  0  0  0  0  0  0
    8.6190   -3.1947    0.0000 H   0  0  0  0  0  0  0  0  0  0  0  0
    7.8763   -0.3244    0.0000 O   0  0  0  0  0  0  0  0  0  0  0  0
    8.5675   -0.6892    0.0000 O   0  0  0  0  0  0  0  0  0  0  0  0
  1  2  2  0
  1  3  1  0
  2 28  1  0
  3  5  2  0
  4  3  1  0
  4 34  1  0
  5  6  1  0
  5  7  1  0
  7 26  2  0
  8  9  2  0
  9 10  1  0
  9  7  1  0
 10 11  2  0
 11 12  1  0
 13 14  2  0
 14 18  1  0
 14 12  1  0
 15 16  2  0
 16 17  1  0
 16 18  1  0
 18 19  2  0
 19 20  1  0
 19 22  1  0
 21 22  1  0
 21 12  1  0
 21 23  1  0
 22 40  1  6
 22 37  1  1
 23 24  1  0
 24 25  1  1
 24 10  1  0
 26 27  1  0
 26  2  1  0
 27 24  1  0
 29 30  1  0
 30 31  1  0
 31 32  1  0
 31 36  1  0
 32 33  1  0
 33 29  1  0
 34 35  2  0
 36 34  1  0
 37 38  1  0
 37 39  1  0
 21 41  1  1
 11 42  1  0
 12 43  1  1
M  END

> <chembl_id>
CHEMBL1951095

> <chembl_pref_name>
ERAVACYCLINE

$$$$

     RDKit          2D

 42 44  0  0  0  0  0  0  0  0999 V2000
    2.1474   -2.0602    0.0000 C   0  0  0  0  0  0  0  0  0  0  0  0
    2.8619   -1.6477    0.0000 C   0  0  0  0  0  0  0  0  0  0  0  0
    2.8619   -0.8227    0.0000 C   0  0  0  0  0  0  0  0  0  0  0  0
    2.8619    0.8273    0.0000 N   0  0  0  0  0  0  0  0  0  0  0  0
    2.1474    0.4148    0.0000 C   0  0  0  0  0  0  0  0  0  0  0  0
    2.1474   -0.4102    0.0000 C   0  0  0  0  0  0  0  0  0  0  0  0
    1.4329   -0.8227    0.0000 O   0  0  0  0  0  0  0  0  0  0  0  0
    1.4329   -1.6477    0.0000 C   0  0  0  0  0  0  0  0  0  0  0  0
    0.7185   -2.0602    0.0000 O   0  0  0  0  0  0  0  0  0  0  0  0
    2.1474   -2.8852    0.0000 N   0  0  0  0  0  0  0  0  0  0  0  0
    1.4329    0.8273    0.0000 C   0  0  0  0  0  0  0  0  0  0  0  0
    1.4329    1.6523    0.0000 C   0  0  0  0  0  0  0  0  0  0  0  0
    0.7185    2.0648    0.0000 C   0  0  0  0  0  0  0  0  0  0  0  0
    0.0040    1.6523    0.0000 C   0  0  0  0  0  0  0  0  0  0  0  0
    0.0040    0.8273    0.0000 C   0  0  0  0  0  0  0  0  0  0  0  0
    0.7185    0.4148    0.0000 O   0  0  0  0  0  0  0  0  0  0  0  0
    0.7185    2.8898    0.0000 N   0  0  0  0  0  0  0  0  0  0  0  0
   -0.7105   -2.0602    0.0000 C   0  0  0  0  0  0  0  0  0  0  0  0
   -0.7105   -2.8852    0.0000 N   0  0  0  0  0  0  0  0  0  0  0  0
   -1.4250   -1.6477    0.0000 C   0  0  0  0  0  0  0  0  0  0  0  0
   -1.4250   -0.8227    0.0000 C   0  0  0  0  0  0  0  0  0  0  0  0
   -0.7105   -0.4102    0.0000 C   0  0  0  0  0  0  0  0  0  0  0  0
   -0.7105    0.4148    0.0000 O   0  0  0  0  0  0  0  0  0  0  0  0
    0.0040   -0.8227    0.0000 C   0  0  0  0  0  0  0  0  0  0  0  0
    0.7185   -0.4102    0.0000 O   0  0  0  0  0  0  0  0  0  0  0  0
    0.0040   -1.6477    0.0000 C   0  0  0  0  0  0  0  0  0  0  0  0
    3.5763    2.8898    0.0000 O   0  0  0  0  0  0  0  0  0  0  0  0
    3.5763    2.0648    0.0000 C   0  0  0  0  0  0  0  0  0  0  0  0
    2.8619    1.6523    0.0000 C   0  0  0  0  0  0  0  0  0  0  0  0
   -2.8539   -1.6477    0.0000 O   0  0  0  0  0  0  0  0  0  0  0  0
   -2.8539   -0.8227    0.0000 C   0  0  0  0  0  0  0  0  0  0  0  0
   -3.5684   -0.4102    0.0000 C   0  0  0  0  0  0  0  0  0  0  0  0
   -4.9973   -0.4102    0.0000 C   0  0  0  0  0  0  0  0  0  0  0  0
   -5.7118   -0.8227    0.0000 N   0  0  0  0  0  0  0  0  0  0  0  0
   -4.2828   -0.8227    0.0000 C   0  0  0  0  0  0  0  0  0  0  0  0
    0.0040    3.3023    0.0000 C   0  0  0  0  0  0  0  0  0  0  0  0
   -2.1394   -0.4102    0.0000 N   0  0  0  0  0  0  0  0  0  0  0  0
   -0.7105    2.0648    0.0000 O   0  0  0  0  0  0  0  0  0  0  0  0
   -4.2828    0.0023    0.0000 H   0  0  0  0  0  0  0  0  0  0  0  0
   -3.5684    0.4148    0.0000 O   0  0  0  0  0  0  0  0  0  0  0  0
    2.2574    1.6811    0.0000 O   0  0  0  0  0  0  0  0  0  0  0  0
    1.8701    2.3519    0.0000 C   0  0  0  0  0  0  0  0  0  0  0  0
  1  2  1  0
  1  8  1  0
  1 10  1  1
  2  3  1  0
  3  6  2  0
  4  5  1  0
  6  5  1  0
  6  7  1  0
  7  8  1  0
  8  9  1  1
 26  9  1  6
 11 12  1  0
 11 16  1  0
 12 13  1  0
 13 14  1  0
 13 17  1  1
 15 16  1  0
 15 14  1  0
 15 23  1  6
 17 36  1  0
 18 19  1  1
 18 20  1  0
 18 26  1  0
 20 21  1  0
 21 22  1  0
 24 25  1  1
 24 22  1  0
 26 24  1  0
 27 28  1  0
 28 29  1  0
 29  4  1  0
 30 31  2  0
 31 32  1  0
 33 34  1  0
 33 35  1  0
 35 32  1  0
 22 23  1  6
 21 37  1  1
 37 31  1  0
 14 38  1  6
 32 39  1  1
 32 40  1  6
 12 41  1  1
 12 42  1  6
M  END

> <chembl_id>
CHEMBL1650559

> <chembl_pref_name>
PLAZOMICIN

$$$$

     RDKit          2D

 41 43  0  0  0  0  0  0  0  0999 V2000
   -0.8750   -0.3750    0.0000 C   0  0  0  0  0  0  0  0  0  0  0  0
   -1.2917   -1.0875    0.0000 C   0  0  0  0  0  0  0  0  0  0  0  0
   -0.8852   -1.8006    0.0000 C   0  0  0  0  0  0  0  0  0  0  0  0
   -0.0605   -1.8075    0.0000 C   0  0  0  0  0  0  0  0  0  0  0  0
    0.3562   -1.0950    0.0000 C   0  0  0  0  0  0  0  0  0  0  0  0
   -0.0519   -0.3756    0.0000 C   0  0  0  0  0  0  0  0  0  0  0  0
   -1.2852    0.3408    0.0000 N   0  0  0  0  0  0  0  0  0  0  0  0
   -2.1167   -1.0829    0.0000 O   0  0  0  0  0  0  0  0  0  0  0  0
   -1.3027   -2.5122    0.0000 O   0  0  0  0  0  0  0  0  0  0  0  0
    0.3471   -2.5248    0.0000 O   0  0  0  0  0  0  0  0  0  0  0  0
    1.1812   -1.1004    0.0000 N   0  0  0  0  0  0  0  0  0  0  0  0
   -0.8705    1.0539    0.0000 C   0  0  0  0  0  0  0  0  0  0  0  0
   -1.2807    1.7697    0.0000 C   0  0  0  0  0  0  0  0  0  0  0  0
   -0.0455    1.0513    0.0000 O   0  0  0  0  0  0  0  0  0  0  0  0
   -0.8660    2.4829    0.0000 O   0  0  0  0  0  0  0  0  0  0  0  0
   -2.1057    1.7723    0.0000 C   0  0  0  0  0  0  0  0  0  0  0  0
   -2.5159    2.4881    0.0000 N   0  0  0  0  0  0  0  0  0  0  0  0
    1.1720   -2.5306    0.0000 C   0  0  0  0  0  0  0  0  0  0  0  0
    1.5764   -3.2490    0.0000 C   0  0  0  0  0  0  0  0  0  0  0  0
    2.3978   -3.2567    0.0000 C   0  0  0  0  0  0  0  0  0  0  0  0
    2.8191   -2.5470    0.0000 C   0  0  0  0  0  0  0  0  0  0  0  0
    2.4128   -1.8278    0.0000 C   0  0  0  0  0  0  0  0  0  0  0  0
    1.5852   -1.8184    0.0000 O   0  0  0  0  0  0  0  0  0  0  0  0
    2.8327   -1.1177    0.0000 C   0  0  0  0  0  0  0  0  0  0  0  0
    3.6576   -1.1262    0.0000 N   0  0  0  0  0  0  0  0  0  0  0  0
    3.6440   -2.5558    0.0000 O   0  0  0  0  0  0  0  0  0  0  0  0
    2.8026   -3.9755    0.0000 O   0  0  0  0  0  0  0  0  0  0  0  0
    1.1567   -3.9593    0.0000 O   0  0  0  0  0  0  0  0  0  0  0  0
   -2.5331   -1.7951    0.0000 C   0  0  0  0  0  0  0  0  0  0  0  0
   -3.3553   -1.7883    0.0000 C   0  0  0  0  0  0  0  0  0  0  0  0
   -3.7717   -2.4964    0.0000 C   0  0  0  0  0  0  0  0  0  0  0  0
   -3.3667   -3.2155    0.0000 C   0  0  0  0  0  0  0  0  0  0  0  0
   -2.5408   -3.2221    0.0000 C   0  0  0  0  0  0  0  0  0  0  0  0
   -2.1198   -2.5095    0.0000 O   0  0  0  0  0  0  0  0  0  0  0  0
   -3.7620   -1.0705    0.0000 O   0  0  0  0  0  0  0  0  0  0  0  0
   -4.5966   -2.4886    0.0000 N   0  0  0  0  0  0  0  0  0  0  0  0
   -4.1958   -3.2083    0.0000 C   0  0  0  0  0  0  0  0  0  0  0  0
   -3.3750   -4.0375    0.0000 O   0  0  0  0  0  0  0  0  0  0  0  0
   -5.0024   -1.7703    0.0000 C   0  0  0  0  0  0  0  0  0  0  0  0
    0.7542   -1.8125    0.0000 H   0  0  0  0  0  0  0  0  0  0  0  0
   -1.7375   -2.0042    0.0000 H   0  0  0  0  0  0  0  0  0  0  0  0
  3  4  1  0
  5 11  1  6
 18 23  1  0
 19 20  1  0
 20 21  1  0
 21 22  1  0
 22 23  1  0
  4  5  1  0
 22 24  1  6
  7 12  1  0
 24 25  1  0
  5  6  1  0
 21 26  1  1
 12 13  1  0
 20 27  1  6
 19 28  1  1
 12 14  2  0
  8 29  1  0
 29 30  1  0
  1  7  1  6
 13 15  1  6
  1  2  1  0
 13 16  1  0
  2  8  1  1
 29 34  1  0
 30 31  1  0
 31 32  1  0
 32 33  1  0
 33 34  1  0
 16 17  1  0
 30 35  1  1
  1  6  1  0
 31 36  1  6
 10 18  1  0
 32 37  1  1
 18 19  1  0
 32 38  1  0
  3  9  1  6
 36 39  1  0
  2  3  1  0
 18 40  1  6
  4 10  1  1
 29 41  1  6
M  END

> <chembl_id>
CHEMBL272080

> <chembl_pref_name>
ISEPAMICIN

$$$$

     RDKit          2D

 17 18  0  0  0  0  0  0  0  0999 V2000
    1.2990   -0.7500    0.0000 C   0  0  0  0  0  0  0  0  0  0  0  0
    1.2990    0.7500    0.0000 C   0  0  0  0  0  0  0  0  0  0  0  0
    0.0000    1.5000    0.0000 C   0  0  0  0  0  0  0  0  0  0  0  0
   -1.2990    0.7500    0.0000 C   0  0  0  0  0  0  0  0  0  0  0  0
   -1.2990   -0.7500    0.0000 C   0  0  0  0  0  0  0  0  0  0  0  0
    0.0000   -1.5000    0.0000 C   0  0  0  0  0  0  0  0  0  0  0  0
   -2.5988   -1.5004    0.0000 S   0  0  0  0  0  0  0  0  0  0  0  0
   -3.8990   -0.7508    0.0000 N   0  0  0  0  0  0  0  0  0  0  0  0
   -5.1988   -1.5013    0.0000 C   0  0  0  0  0  0  0  0  0  0  0  0
   -6.4994   -0.7540    0.0000 N   0  0  0  0  0  0  0  0  0  0  0  0
   -7.7969   -1.5066    0.0000 C   0  0  0  0  0  0  0  0  0  0  0  0
   -7.7938   -3.0066    0.0000 C   0  0  0  0  0  0  0  0  0  0  0  0
   -6.4933   -3.7540    0.0000 C   0  0  0  0  0  0  0  0  0  0  0  0
   -5.1958   -3.0013    0.0000 N   0  0  0  0  0  0  0  0  0  0  0  0
   -2.5984   -2.7004    0.0000 O   0  0  0  0  0  0  0  0  0  0  0  0
   -3.6377   -2.1009    0.0000 O   0  0  0  0  0  0  0  0  0  0  0  0
    2.3383    1.3500    0.0000 N   0  0  0  0  0  0  0  0  0  0  0  0
  1  2  1  0
  2  3  2  0
  3  4  1  0
  4  5  2  0
  5  6  1  0
  6  1  2  0
  5  7  1  0
  7  8  1  0
  8  9  1  0
 10  9  2  0
 11 10  1  0
 12 11  2  0
 13 12  1  0
 14 13  2  0
  9 14  1  0
  7 15  2  0
  7 16  2  0
  2 17  1  0
M  END

> <chembl_id>
CHEMBL439

> <chembl_pref_name>
SULFADIAZINE

$$$$

     RDKit          2D

125134  0  0  0  0  0  0  0  0999 V2000
   11.7297   -3.9790    0.0000 O   0  0  0  0  0  0  0  0  0  0  0  0
   11.3777   -3.2888    0.0000 C   0  0  0  0  0  0  0  0  0  0  0  0
   12.1024   -2.8945    0.0000 N   0  0  0  0  0  0  0  0  0  0  0  0
   12.2943   -2.0921    0.0000 C   0  0  0  0  0  0  0  0  0  0  0  0
   13.1167   -2.0267    0.0000 C   0  0  0  0  0  0  0  0  0  0  0  0
   13.3527   -2.7041    0.0000 C   0  0  0  0  0  0  0  0  0  0  0  0
   14.2584   -2.7413    0.0000 S   0  0  0  0  0  0  0  0  0  0  0  0
   13.7056   -3.5383    0.0000 O   0  0  0  0  0  0  0  0  0  0  0  0
   15.0848   -3.2220    0.0000 O   0  0  0  0  0  0  0  0  0  0  0  0
   14.6726   -1.9161    0.0000 C   0  0  0  0  0  0  0  0  0  0  0  0
   14.2192   -1.2269    0.0000 C   0  0  0  0  0  0  0  0  0  0  0  0
   14.5893   -0.4896    0.0000 N   0  0  0  0  0  0  0  0  0  0  0  0
   14.1359    0.1996    0.0000 C   0  0  0  0  0  0  0  0  0  0  0  0
   14.5060    0.9369    0.0000 C   0  0  0  0  0  0  0  0  0  0  0  0
   15.4129   -0.4415    0.0000 C   0  0  0  0  0  0  0  0  0  0  0  0
   15.7831    0.2958    0.0000 C   0  0  0  0  0  0  0  0  0  0  0  0
   12.8062   -3.3250    0.0000 C   0  0  0  0  0  0  0  0  0  0  0  0
   10.6739   -2.8583    0.0000 C   0  0  0  0  0  0  0  0  0  0  0  0
   10.3449   -2.0651    0.0000 C   0  0  0  0  0  0  0  0  0  0  0  0
    9.5202   -2.0442    0.0000 O   0  0  0  0  0  0  0  0  0  0  0  0
    9.9492   -3.2526    0.0000 N   0  0  0  0  0  0  0  0  0  0  0  0
    9.2455   -2.8221    0.0000 C   0  0  0  0  0  0  0  0  0  0  0  0
    8.5208   -3.2164    0.0000 C   0  0  0  0  0  0  0  0  0  0  0  0
    8.4999   -4.0411    0.0000 C   0  0  0  0  0  0  0  0  0  0  0  0
    9.3100   -4.3748    0.0000 O   0  0  0  0  0  0  0  0  0  0  0  0
    7.7752   -4.4354    0.0000 C   0  0  0  0  0  0  0  0  0  0  0  0
    7.7543   -5.2601    0.0000 C   0  0  0  0  0  0  0  0  0  0  0  0
    7.0133   -5.6649    0.0000 O   0  0  0  0  0  0  0  0  0  0  0  0
    8.4581   -5.6906    0.0000 C   0  0  0  0  0  0  0  0  0  0  0  0
    9.1828   -5.2963    0.0000 C   0  0  0  0  0  0  0  0  0  0  0  0
    8.7185   -4.6444    0.0000 C   0  0  0  0  0  0  0  0  0  0  0  0
    9.8866   -5.7268    0.0000 C   0  0  0  0  0  0  0  0  0  0  0  0
   10.6113   -5.3325    0.0000 C   0  0  0  0  0  0  0  0  0  0  0  0
   11.3151   -5.7630    0.0000 C   0  0  0  0  0  0  0  0  0  0  0  0
   12.0397   -5.3687    0.0000 N   0  0  0  0  0  0  0  0  0  0  0  0
   12.7435   -5.7992    0.0000 C   0  0  0  0  0  0  0  0  0  0  0  0
   12.7925   -6.6502    0.0000 O   0  0  0  0  0  0  0  0  0  0  0  0
   13.5546   -5.4025    0.0000 C   0  0  0  0  0  0  0  0  0  0  0  0
   14.3569   -5.5945    0.0000 C   0  0  0  0  0  0  0  0  0  0  0  0
   14.7874   -4.8907    0.0000 C   0  0  0  0  0  0  0  0  0  0  0  0
   15.6346   -5.2446    0.0000 C   0  0  0  0  0  0  0  0  0  0  0  0
   14.2510   -4.2638    0.0000 C   0  0  0  0  0  0  0  0  0  0  0  0
   15.1322   -3.8906    0.0000 C   0  0  0  0  0  0  0  0  0  0  0  0
   15.7273   -3.0801    0.0000 C   0  0  0  0  0  0  0  0  0  0  0  0
   15.8169   -4.4362    0.0000 C   0  0  0  0  0  0  0  0  0  0  0  0
   14.2347   -3.3611    0.0000 O   0  0  0  0  0  0  0  0  0  0  0  0
   13.5309   -2.9307    0.0000 C   0  0  0  0  0  0  0  0  0  0  0  0
   13.7991   -1.9869    0.0000 O   0  0  0  0  0  0  0  0  0  0  0  0
   13.5877   -2.7011    0.0000 H   0  0  0  0  0  0  0  0  0  0  0  0
    3.1949   -3.4768    0.0000 N   0  0  0  0  0  0  0  0  0  0  0  0
    2.4827   -3.0614    0.0000 C   0  0  0  0  0  0  0  0  0  0  0  0
    1.7706   -1.8249    0.0000 N   0  0  0  0  0  0  0  0  0  0  0  0
    1.0534   -2.2403    0.0000 C   0  0  0  0  0  0  0  0  0  0  0  0
   -0.4995   -1.8249    0.0000 N   0  0  0  0  0  0  0  0  0  0  0  0
    2.4827   -2.2403    0.0000 C   0  0  0  0  0  0  0  0  0  0  0  0
    3.1949   -4.2928    0.0000 C   0  0  0  0  0  0  0  0  0  0  0  0
    1.7706   -4.2928    0.0000 N   0  0  0  0  0  0  0  0  0  0  0  0
   -1.8101   -4.7082    0.0000 C   0  0  0  0  0  0  0  0  0  0  0  0
   -1.2265   -2.2305    0.0000 C   0  0  0  0  0  0  0  0  0  0  0  0
    2.4827   -4.7082    0.0000 C   0  0  0  0  0  0  0  0  0  0  0  0
   -2.6261   -4.2335    0.0000 C   0  0  0  0  0  0  0  0  0  0  0  0
    0.3412   -4.2928    0.0000 C   0  0  0  0  0  0  0  0  0  0  0  0
   -2.5222   -5.9495    0.0000 C   0  0  0  0  0  0  0  0  0  0  0  0
   -2.6508   -2.2107    0.0000 N   0  0  0  0  0  0  0  0  0  0  0  0
   -1.8101   -5.5391    0.0000 N   0  0  0  0  0  0  0  0  0  0  0  0
    0.3314   -1.8249    0.0000 C   0  0  0  0  0  0  0  0  0  0  0  0
   -2.5321   -6.7705    0.0000 C   0  0  0  0  0  0  0  0  0  0  0  0
   -0.3808   -4.7082    0.0000 O   0  0  0  0  0  0  0  0  0  0  0  0
    3.9070   -3.0614    0.0000 C   0  0  0  0  0  0  0  0  0  0  0  0
    1.0534   -4.7082    0.0000 C   0  0  0  0  0  0  0  0  0  0  0  0
    3.9070   -4.7181    0.0000 C   0  0  0  0  0  0  0  0  0  0  0  0
    4.6192   -3.4768    0.0000 C   0  0  0  0  0  0  0  0  0  0  0  0
    4.6192   -4.2928    0.0000 C   0  0  0  0  0  0  0  0  0  0  0  0
   -1.9238   -1.8002    0.0000 C   0  0  0  0  0  0  0  0  0  0  0  0
   -1.0929   -4.2928    0.0000 C   0  0  0  0  0  0  0  0  0  0  0  0
    6.5578   -0.8507    0.0000 N   0  0  0  0  0  0  0  0  0  0  0  0
   -3.2443   -7.1860    0.0000 N   0  0  0  0  0  0  0  0  0  0  0  0
    5.8655   -1.9338    0.0000 C   0  0  0  0  0  0  0  0  0  0  0  0
    5.8655   -2.7596    0.0000 S   0  0  0  0  0  0  0  0  0  0  0  0
    1.7706   -3.4768    0.0000 O   0  0  0  0  0  0  0  0  0  0  0  0
    3.1949   -1.8151    0.0000 C   0  0  0  0  0  0  0  0  0  0  0  0
    1.0534   -3.0614    0.0000 O   0  0  0  0  0  0  0  0  0  0  0  0
    5.4501   -3.4768    0.0000 C   0  0  0  0  0  0  0  0  0  0  0  0
   -1.2314   -3.0564    0.0000 O   0  0  0  0  0  0  0  0  0  0  0  0
    5.7616   -1.1919    0.0000 C   0  0  0  0  0  0  0  0  0  0  0  0
   -3.3481   -4.6439    0.0000 O   0  0  0  0  0  0  0  0  0  0  0  0
    2.4827   -5.5391    0.0000 O   0  0  0  0  0  0  0  0  0  0  0  0
    0.3412   -3.4718    0.0000 O   0  0  0  0  0  0  0  0  0  0  0  0
   -1.8199   -7.1860    0.0000 C   0  0  0  0  0  0  0  0  0  0  0  0
   -3.2443   -5.5391    0.0000 O   0  0  0  0  0  0  0  0  0  0  0  0
    3.1949    0.6528    0.0000 C   0  0  0  0  0  0  0  0  0  0  0  0
    6.6964   -1.5777    0.0000 C   0  0  0  0  0  0  0  0  0  0  0  0
    3.1949    1.4787    0.0000 N   0  0  0  0  0  0  0  0  0  0  0  0
    5.3462   -4.7082    0.0000 O   0  0  0  0  0  0  0  0  0  0  0  0
    1.0534   -5.5391    0.0000 C   0  0  0  0  0  0  0  0  0  0  0  0
    3.9169    0.2374    0.0000 C   0  0  0  0  0  0  0  0  0  0  0  0
    2.4827    0.2374    0.0000 C   0  0  0  0  0  0  0  0  0  0  0  0
    7.4234   -1.9189    0.0000 C   0  0  0  0  0  0  0  0  0  0  0  0
    6.8299   -0.5638    0.0000 C   0  0  0  0  0  0  0  0  0  0  0  0
    7.2750   -1.1721    0.0000 C   0  0  0  0  0  0  0  0  0  0  0  0
    6.5875    0.0297    0.0000 C   0  0  0  0  0  0  0  0  0  0  0  0
   -0.7418   -1.0386    0.0000 C   0  0  0  0  0  0  0  0  0  0  0  0
    1.7706   -0.9990    0.0000 C   0  0  0  0  0  0  0  0  0  0  0  0
    3.1949   -0.9990    0.0000 C   0  0  0  0  0  0  0  0  0  0  0  0
    2.4827   -0.5836    0.0000 C   0  0  0  0  0  0  0  0  0  0  0  0
    3.9169   -0.5836    0.0000 C   0  0  0  0  0  0  0  0  0  0  0  0
    0.5935   -1.0436    0.0000 C   0  0  0  0  0  0  0  0  0  0  0  0
   -1.0979   -6.7656    0.0000 O   0  0  0  0  0  0  0  0  0  0  0  0
   -1.9139   -0.9792    0.0000 C   0  0  0  0  0  0  0  0  0  0  0  0
   -0.0742   -0.5539    0.0000 C   0  0  0  0  0  0  0  0  0  0  0  0
   -1.0929   -3.4718    0.0000 C   0  0  0  0  0  0  0  0  0  0  0  0
   -3.2443   -8.0118    0.0000 C   0  0  0  0  0  0  0  0  0  0  0  0
    2.4827    1.8941    0.0000 C   0  0  0  0  0  0  0  0  0  0  0  0
    3.9070    1.8991    0.0000 C   0  0  0  0  0  0  0  0  0  0  0  0
   -1.8101   -8.0118    0.0000 C   0  0  0  0  0  0  0  0  0  0  0  0
    1.7706   -5.9397    0.0000 C   0  0  0  0  0  0  0  0  0  0  0  0
    0.3314   -5.9397    0.0000 C   0  0  0  0  0  0  0  0  0  0  0  0
   -1.1968   -0.5836    0.0000 C   0  0  0  0  0  0  0  0  0  0  0  0
   -2.5321   -8.4273    0.0000 C   0  0  0  0  0  0  0  0  0  0  0  0
    0.3314   -6.7705    0.0000 C   0  0  0  0  0  0  0  0  0  0  0  0
    1.7706   -6.7705    0.0000 C   0  0  0  0  0  0  0  0  0  0  0  0
    1.0534   -7.1860    0.0000 C   0  0  0  0  0  0  0  0  0  0  0  0
    4.9290   -2.3310    0.0000 H   0  0  0  0  0  0  0  0  0  0  0  0
    1.4412   -1.4040    0.0000 H   0  0  0  0  0  0  0  0  0  0  0  0
    3.1888   -5.4797    0.0000 H   0  0  0  0  0  0  0  0  0  0  0  0
  2  1  2  0
  2  3  1  0
  2 18  1  0
  4  3  1  0
 17  3  1  0
  5  4  1  0
  6  5  1  0
  6  7  1  1
 17  6  1  0
  8  7  2  0
  9  7  2  0
 10  7  1  0
 10 11  1  0
 11 12  1  0
 13 12  1  0
 15 12  1  0
 13 14  1  0
 15 16  1  0
 17 47  1  0
 19 18  2  0
 18 21  1  0
 19 20  1  0
 22 20  1  0
 22 21  2  0
 22 23  1  0
 23 24  1  0
 24 25  2  0
 24 26  1  0
 26 27  1  0
 27 28  1  1
 27 29  1  0
 29 30  2  0
 30 31  1  0
 30 32  1  0
 32 33  2  0
 33 34  1  0
 34 35  1  0
 36 35  1  0
 36 37  2  0
 36 38  1  0
 38 39  2  0
 39 40  1  0
 40 41  1  6
 40 42  1  0
 42 43  1  1
 42 46  1  0
 43 44  1  0
 43 45  1  0
 47 46  1  0
 47 48  2  0
 17 49  1  1
 51 50  1  0
 52 55  1  0
 53 52  1  0
 54 66  1  0
 55 51  1  0
 56 50  1  0
 57 60  1  0
 58 75  1  0
 59 54  1  0
 56 60  1  0
 61 58  1  0
 62 70  1  0
 63 65  1  0
 64 74  1  0
 58 65  1  6
 66 53  1  0
 67 63  1  0
 68 62  1  0
 69 50  1  0
 70 57  1  0
 71 56  1  0
 72 69  1  0
 73 72  1  0
 74 59  1  0
 75 68  1  0
 76 85  1  0
 77 67  2  0
 78 79  1  6
 79 83  1  0
 80 51  2  0
 55 81  1  1
 82 53  2  0
 83 72  1  0
 84 59  2  0
 85 78  1  0
 86 61  2  0
 87 60  2  0
 88 62  2  0
 89 67  1  0
 90 63  2  0
 91 96  2  0
 92 78  1  0
 93 91  1  0
 94 73  2  0
 70 95  1  1
 96106  1  0
 97105  2  0
 98 92  1  0
 99 92  1  0
100 98  1  0
101 99  1  0
102 54  1  0
103 52  1  0
104 81  1  0
105104  1  0
106104  2  0
107 66  1  0
108 89  1  0
 74109  1  6
110107  1  0
 75111  1  1
112 77  1  0
113 93  1  0
114 93  1  0
115 89  2  0
116 95  1  0
117 95  2  0
118109  1  0
119115  1  0
120117  1  0
121116  2  0
122120  2  0
 72123  1  6
 66124  1  6
 73 71  1  0
 91 97  1  0
110102  1  0
101 76  1  0
100 76  1  0
122121  1  0
 61 64  1  0
119112  2  0
 56125  1  6
M  END

> <chembl_id>
CHEMBL3137691

> <chembl_pref_name>
QUINUPRISTIN/DALFOPRISTIN

$$$$

     RDKit          2D

 19 20  0  0  0  0  0  0  0  0999 V2000
    5.8987   -1.5039    0.0000 C   0  0  0  0  0  0  0  0  0  0  0  0
    6.7237   -1.5039    0.0000 N   0  0  0  0  0  0  0  0  0  0  0  0
    6.9786   -2.2885    0.0000 C   0  0  0  0  0  0  0  0  0  0  0  0
    6.3111   -2.7735    0.0000 C   0  0  0  0  0  0  0  0  0  0  0  0
    5.6437   -2.2885    0.0000 N   0  0  0  0  0  0  0  0  0  0  0  0
    5.4138   -0.8365    0.0000 O   0  0  0  0  0  0  0  0  0  0  0  0
    7.7632   -2.5435    0.0000 O   0  0  0  0  0  0  0  0  0  0  0  0
    4.8591   -2.5434    0.0000 N   0  0  0  0  0  0  0  0  0  0  0  0
    4.2460   -1.9914    0.0000 C   0  0  0  0  0  0  0  0  0  0  0  0
    3.4614   -2.2463    0.0000 C   0  0  0  0  0  0  0  0  0  0  0  0
    2.8483   -1.6942    0.0000 C   0  0  0  0  0  0  0  0  0  0  0  0
    1.3963   -1.4642    0.0000 O   0  0  0  0  0  0  0  0  0  0  0  0
    2.0637   -1.9491    0.0000 C   0  0  0  0  0  0  0  0  0  0  0  0
    1.8087   -2.7338    0.0000 C   0  0  0  0  0  0  0  0  0  0  0  0
    0.9837   -2.7338    0.0000 C   0  0  0  0  0  0  0  0  0  0  0  0
    0.7288   -1.9491    0.0000 C   0  0  0  0  0  0  0  0  0  0  0  0
   -0.0558   -1.6942    0.0000 N   0  0  0  0  0  0  0  0  0  0  0  0
   -0.6689   -2.2462    0.0000 O   0  0  0  0  0  0  0  0  0  0  0  0
   -0.2273   -0.8872    0.0000 O   0  0  0  0  0  0  0  0  0  0  0  0
  1  2  1  0
  2  3  1  0
  3  4  1  0
  4  5  1  0
  1  5  1  0
  1  6  2  0
  3  7  2  0
  9 10  1  0
 10 11  2  0
 12 13  1  0
 13 14  2  0
 14 15  1  0
 15 16  2  0
 12 16  1  0
 17 18  2  0
 17 19  1  0
 16 17  1  0
 11 13  1  0
  8  9  2  0
  5  8  1  0
M  CHG  2  17   1  19  -1
M  END

> <chembl_id>
CHEMBL3707254

> <chembl_pref_name>
FURAZIDIN

$$$$

     RDKit          2D

104113  0  0  0  0  0  0  0  0999 V2000
   -4.2203   -0.4836    0.0000 C   0  0  0  0  0  0  0  0  0  0  0  0
   -4.9347   -0.8961    0.0000 C   0  0  0  0  0  0  0  0  0  0  0  0
   -4.9347   -1.7211    0.0000 C   0  0  0  0  0  0  0  0  0  0  0  0
   -4.2203   -2.1336    0.0000 C   0  0  0  0  0  0  0  0  0  0  0  0
   -3.5058   -1.7211    0.0000 C   0  0  0  0  0  0  0  0  0  0  0  0
   -3.5058   -0.8961    0.0000 C   0  0  0  0  0  0  0  0  0  0  0  0
   -2.7913   -2.1336    0.0000 O   0  0  0  0  0  0  0  0  0  0  0  0
   -2.0769   -1.7212    0.0000 C   0  0  0  0  0  0  0  0  0  0  0  0
   -2.0769   -0.8962    0.0000 C   0  0  0  0  0  0  0  0  0  0  0  0
   -2.7913   -0.4836    0.0000 Cl  0  0  0  0  0  0  0  0  0  0  0  0
   -1.3624   -2.1337    0.0000 C   0  0  0  0  0  0  0  0  0  0  0  0
   -0.6479   -1.7212    0.0000 C   0  0  0  0  0  0  0  0  0  0  0  0
   -0.6479   -0.8962    0.0000 C   0  0  0  0  0  0  0  0  0  0  0  0
   -1.3624   -0.4837    0.0000 C   0  0  0  0  0  0  0  0  0  0  0  0
    0.0666   -2.1337    0.0000 O   0  0  0  0  0  0  0  0  0  0  0  0
    0.7811   -1.7212    0.0000 C   0  0  0  0  0  0  0  0  0  0  0  0
    0.7811   -0.8962    0.0000 C   0  0  0  0  0  0  0  0  0  0  0  0
    0.0666   -0.4837    0.0000 Cl  0  0  0  0  0  0  0  0  0  0  0  0
    1.4956   -2.1338    0.0000 C   0  0  0  0  0  0  0  0  0  0  0  0
    2.2100   -1.7213    0.0000 C   0  0  0  0  0  0  0  0  0  0  0  0
    2.2100   -0.8963    0.0000 C   0  0  0  0  0  0  0  0  0  0  0  0
    1.4956   -0.4838    0.0000 C   0  0  0  0  0  0  0  0  0  0  0  0
   -1.3623   -2.9587    0.0000 O   0  0  0  0  0  0  0  0  0  0  0  0
   -0.6479   -3.3712    0.0000 C   0  0  0  0  0  0  0  0  0  0  0  0
    0.0666   -2.9587    0.0000 O   0  0  0  0  0  0  0  0  0  0  0  0
   -0.6479   -4.1963    0.0000 C   0  0  0  0  0  0  0  0  0  0  0  0
    0.0666   -4.6088    0.0000 C   0  0  0  0  0  0  0  0  0  0  0  0
    0.7811   -4.1963    0.0000 C   0  0  0  0  0  0  0  0  0  0  0  0
    0.7811   -3.3712    0.0000 C   0  0  0  0  0  0  0  0  0  0  0  0
   -3.0164   -5.3317    0.0000 C   0  0  0  0  0  0  0  0  0  0  0  0
   -2.3020   -5.7442    0.0000 C   0  0  0  0  0  0  0  0  0  0  0  0
   -1.5875   -5.3317    0.0000 O   0  0  0  0  0  0  0  0  0  0  0  0
   -1.5875   -4.5067    0.0000 C   0  0  0  0  0  0  0  0  0  0  0  0
   -2.3019   -4.0942    0.0000 C   0  0  0  0  0  0  0  0  0  0  0  0
   -3.0164   -4.5067    0.0000 C   0  0  0  0  0  0  0  0  0  0  0  0
   -3.7309   -4.0942    0.0000 C   0  0  0  0  0  0  0  0  0  0  0  0
   -3.8133   -4.7202    0.0000 N   0  0  0  0  0  0  0  0  0  0  0  0
   -3.7309   -5.7442    0.0000 O   0  0  0  0  0  0  0  0  0  0  0  0
   -2.3020   -6.5692    0.0000 C   0  0  0  0  0  0  0  0  0  0  0  0
   -0.9329   -5.0089    0.0000 O   0  0  0  0  0  0  0  0  0  0  0  0
   -0.0411   -5.4267    0.0000 O   0  0  0  0  0  0  0  0  0  0  0  0
    1.5779   -4.4098    0.0000 O   0  0  0  0  0  0  0  0  0  0  0  0
    1.5779   -3.1577    0.0000 C   0  0  0  0  0  0  0  0  0  0  0  0
    1.7915   -2.3608    0.0000 O   0  0  0  0  0  0  0  0  0  0  0  0
   -4.9347    1.0157    0.0000 C   0  0  0  0  0  0  0  0  0  0  0  0
   -5.6492    0.6031    0.0000 C   0  0  0  0  0  0  0  0  0  0  0  0
   -5.6492   -0.4836    0.0000 C   0  0  0  0  0  0  0  0  0  0  0  0
   -4.2203    0.6031    0.0000 N   0  0  0  0  0  0  0  0  0  0  0  0
   -5.6492    2.2532    0.0000 O   0  0  0  0  0  0  0  0  0  0  0  0
   -6.3637    1.9388    0.0000 C   0  0  0  0  0  0  0  0  0  0  0  0
   -6.3637    1.0157    0.0000 N   0  0  0  0  0  0  0  0  0  0  0  0
   -4.9347    1.8407    0.0000 O   0  0  0  0  0  0  0  0  0  0  0  0
   -4.2203    2.2532    0.0000 C   0  0  0  0  0  0  0  0  0  0  0  0
   -3.5058    1.0157    0.0000 C   0  0  0  0  0  0  0  0  0  0  0  0
   -3.5058    1.8407    0.0000 C   0  0  0  0  0  0  0  0  0  0  0  0
   -2.7914    0.6031    0.0000 C   0  0  0  0  0  0  0  0  0  0  0  0
   -2.0769    1.0157    0.0000 N   0  0  0  0  0  0  0  0  0  0  0  0
   -1.3624    0.6031    0.0000 C   0  0  0  0  0  0  0  0  0  0  0  0
   -0.6480    1.0157    0.0000 C   0  0  0  0  0  0  0  0  0  0  0  0
   -0.6480    1.8407    0.0000 O   0  0  0  0  0  0  0  0  0  0  0  0
    0.0665    2.2532    0.0000 C   0  0  0  0  0  0  0  0  0  0  0  0
    0.0665    0.6031    0.0000 N   0  0  0  0  0  0  0  0  0  0  0  0
    0.7810    1.0157    0.0000 C   0  0  0  0  0  0  0  0  0  0  0  0
    0.7810    1.8407    0.0000 C   0  0  0  0  0  0  0  0  0  0  0  0
    1.4954    2.2532    0.0000 C   0  0  0  0  0  0  0  0  0  0  0  0
    1.4954    0.6031    0.0000 C   0  0  0  0  0  0  0  0  0  0  0  0
    2.2099    1.0157    0.0000 N   0  0  0  0  0  0  0  0  0  0  0  0
    2.5371    2.0370    0.0000 C   0  0  0  0  0  0  0  0  0  0  0  0
    3.1861    2.3186    0.0000 C   0  0  0  0  0  0  0  0  0  0  0  0
    3.1861    0.6686    0.0000 C   0  0  0  0  0  0  0  0  0  0  0  0
    3.9006    1.0811    0.0000 C   0  0  0  0  0  0  0  0  0  0  0  0
    3.9006    1.9061    0.0000 N   0  0  0  0  0  0  0  0  0  0  0  0
    3.1862   -0.4183    0.0000 C   0  0  0  0  0  0  0  0  0  0  0  0
   -6.3637   -0.8961    0.0000 O   0  0  0  0  0  0  0  0  0  0  0  0
    3.9007   -0.8308    0.0000 O   0  0  0  0  0  0  0  0  0  0  0  0
    1.4954   -0.2219    0.0000 O   0  0  0  0  0  0  0  0  0  0  0  0
   -2.7914   -0.2219    0.0000 O   0  0  0  0  0  0  0  0  0  0  0  0
    4.6150    0.6686    0.0000 O   0  0  0  0  0  0  0  0  0  0  0  0
   -4.2203    3.0782    0.0000 O   0  0  0  0  0  0  0  0  0  0  0  0
   -5.0382    2.1455    0.0000 N   0  0  0  0  0  0  0  0  0  0  0  0
    0.7810    3.4907    0.0000 C   0  0  0  0  0  0  0  0  0  0  0  0
    0.0665    3.0782    0.0000 C   0  0  0  0  0  0  0  0  0  0  0  0
    1.4954    3.0782    0.0000 C   0  0  0  0  0  0  0  0  0  0  0  0
    2.4716    3.5561    0.0000 C   0  0  0  0  0  0  0  0  0  0  0  0
    3.1861    3.1763    0.0000 C   0  0  0  0  0  0  0  0  0  0  0  0
    3.1861    4.7937    0.0000 C   0  0  0  0  0  0  0  0  0  0  0  0
    2.4716    4.3812    0.0000 C   0  0  0  0  0  0  0  0  0  0  0  0
    3.9006    3.5889    0.0000 C   0  0  0  0  0  0  0  0  0  0  0  0
    3.9006    4.3812    0.0000 C   0  0  0  0  0  0  0  0  0  0  0  0
    4.6150    4.7937    0.0000 O   0  0  0  0  0  0  0  0  0  0  0  0
    1.7572    4.7937    0.0000 O   0  0  0  0  0  0  0  0  0  0  0  0
    0.7810    4.3157    0.0000 O   0  0  0  0  0  0  0  0  0  0  0  0
    1.9051    2.4018    0.0000 O   0  0  0  0  0  0  0  0  0  0  0  0
    2.4716    1.3084    0.0000 O   0  0  0  0  0  0  0  0  0  0  0  0
   -7.0182    2.4410    0.0000 C   0  0  0  0  0  0  0  0  0  0  0  0
   -7.7327    2.0285    0.0000 N   0  0  0  0  0  0  0  0  0  0  0  0
   -7.7327    1.2035    0.0000 C   0  0  0  0  0  0  0  0  0  0  0  0
   -7.0182    3.2660    0.0000 C   0  0  0  0  0  0  0  0  0  0  0  0
   -7.7327    3.6785    0.0000 C   0  0  0  0  0  0  0  0  0  0  0  0
   -7.7327    4.5035    0.0000 C   0  0  0  0  0  0  0  0  0  0  0  0
   -8.4471    3.2660    0.0000 C   0  0  0  0  0  0  0  0  0  0  0  0
   -1.3624    1.4281    0.0000 H   0  0  0  0  0  0  0  0  0  0  0  0
    3.8406    0.1663    0.0000 H   0  0  0  0  0  0  0  0  0  0  0  0
    0.1265    1.5179    0.0000 H   0  0  0  0  0  0  0  0  0  0  0  0
  1  2  2  0
  2  3  1  0
  3  4  2  0
  4  5  1  0
  5  6  2  0
  1  6  1  0
  7  8  1  0
  8  9  2  0
  5  7  1  0
  6 10  1  0
 11 12  2  0
 12 13  1  0
 13 14  2  0
  9 14  1  0
  8 11  1  0
 15 16  1  0
 16 17  2  0
 17 18  1  0
 12 15  1  0
 19 20  2  0
 20 21  1  0
 21 22  2  0
 16 19  1  0
 17 22  1  0
 24 23  1  6
 24 25  1  0
 11 23  1  0
 26 27  1  0
 27 28  1  0
 28 29  1  0
 24 26  1  0
 25 29  1  0
 30 31  1  0
 31 32  1  0
 32 33  1  0
 33 34  1  0
 34 35  1  0
 30 35  1  0
 35 36  1  0
 35 37  1  1
 30 38  1  1
 31 39  1  1
 33 40  1  6
 26 40  1  1
 27 41  1  6
 28 42  1  1
 29 43  1  6
 43 44  1  0
 45 46  1  0
 46 47  1  0
 45 48  1  0
 47  2  1  0
 49 50  2  0
 50 51  1  0
 46 51  1  1
 45 52  2  0
 54 55  1  1
 53 55  1  0
 48 54  1  0
 56 57  1  0
 54 56  1  0
 58 59  1  0
 59 60  2  0
 57 58  1  0
 62 63  1  0
 63 64  1  0
 59 62  1  0
 66 67  1  0
 63 66  1  0
 70 71  1  0
 71 72  1  0
 69 72  1  0
 67 70  1  0
 21 73  1  0
 73 70  1  0
 58 14  1  0
 47 74  1  1
 73 75  1  6
 66 76  2  0
 56 77  2  0
 71 78  2  0
 53 79  2  0
 53 80  1  0
 81 82  2  0
 81 83  1  0
 82 61  1  0
 61 64  2  0
 65 83  2  0
 64 65  1  0
 84 85  2  0
 84 83  1  0
 69 85  1  0
 69 68  1  6
 86 87  2  0
 88 89  2  0
 86 89  1  0
 87 84  1  0
 85 88  1  0
 89 90  1  0
 87 91  1  0
 81 92  1  0
 68 93  2  0
 68 94  1  0
 50 95  1  0
 95 96  1  6
 96 97  1  0
 95 98  1  0
 98 99  1  0
 99100  1  0
 99101  1  0
 58102  1  6
 70103  1  1
 63104  1  1
M  END

> <chembl_id>
CHEMBL262777

> <chembl_pref_name>
VANCOMYCIN

$$$$

     RDKit          2D

 31 33  0  0  0  0  0  0  0  0999 V2000
    2.3253    1.5132    0.0000 O   0  0  0  0  0  0  0  0  0  0  0  0
    1.6108    1.1007    0.0000 C   0  0  0  0  0  0  0  0  0  0  0  0
    1.6108    0.2757    0.0000 C   0  0  0  0  0  0  0  0  0  0  0  0
    0.9434   -0.2092    0.0000 O   0  0  0  0  0  0  0  0  0  0  0  0
    1.1983   -0.9938    0.0000 C   0  0  0  0  0  0  0  0  0  0  0  0
    0.7134   -1.6612    0.0000 O   0  0  0  0  0  0  0  0  0  0  0  0
   -0.1071   -1.5750    0.0000 C   0  0  0  0  0  0  0  0  0  0  0  0
   -0.5920   -2.2424    0.0000 C   0  0  0  0  0  0  0  0  0  0  0  0
   -0.2564   -2.9961    0.0000 O   0  0  0  0  0  0  0  0  0  0  0  0
   -1.4125   -2.1562    0.0000 C   0  0  0  0  0  0  0  0  0  0  0  0
   -1.8974   -2.8236    0.0000 N   0  0  0  0  0  0  0  0  0  0  0  0
   -1.7480   -1.4025    0.0000 C   0  0  0  0  0  0  0  0  0  0  0  0
   -1.2631   -0.7351    0.0000 C   0  0  0  0  0  0  0  0  0  0  0  0
   -1.5987    0.0186    0.0000 N   0  0  0  0  0  0  0  0  0  0  0  0
   -0.4426   -0.8213    0.0000 C   0  0  0  0  0  0  0  0  0  0  0  0
    0.0423   -0.1539    0.0000 O   0  0  0  0  0  0  0  0  0  0  0  0
   -0.2933    0.5998    0.0000 C   0  0  0  0  0  0  0  0  0  0  0  0
   -1.1137    0.6860    0.0000 O   0  0  0  0  0  0  0  0  0  0  0  0
   -1.4493    1.4397    0.0000 C   0  0  0  0  0  0  0  0  0  0  0  0
   -2.2698    1.5259    0.0000 C   0  0  0  0  0  0  0  0  0  0  0  0
   -2.7547    0.8585    0.0000 N   0  0  0  0  0  0  0  0  0  0  0  0
   -0.9644    2.1071    0.0000 C   0  0  0  0  0  0  0  0  0  0  0  0
   -1.2999    2.8608    0.0000 O   0  0  0  0  0  0  0  0  0  0  0  0
   -0.1439    2.0209    0.0000 C   0  0  0  0  0  0  0  0  0  0  0  0
    0.3410    2.6883    0.0000 O   0  0  0  0  0  0  0  0  0  0  0  0
    0.1917    1.2672    0.0000 C   0  0  0  0  0  0  0  0  0  0  0  0
    1.0122    1.1810    0.0000 N   0  0  0  0  0  0  0  0  0  0  0  0
    2.0233   -0.9938    0.0000 C   0  0  0  0  0  0  0  0  0  0  0  0
    2.5083   -1.6612    0.0000 O   0  0  0  0  0  0  0  0  0  0  0  0
    2.2783   -0.2092    0.0000 C   0  0  0  0  0  0  0  0  0  0  0  0
    3.0629    0.0458    0.0000 O   0  0  0  0  0  0  0  0  0  0  0  0
  2  1  1  0
  3  2  1  6
  3  4  1  0
 30  3  1  0
  5  4  1  0
  5  6  1  6
 28  5  1  0
  7  6  1  6
  7  8  1  0
  7 15  1  0
  8  9  1  1
  8 10  1  0
 10 11  1  6
 10 12  1  0
 12 13  1  0
 13 14  1  6
 13 15  1  0
 15 16  1  1
 17 16  1  1
 17 18  1  0
 17 26  1  0
 19 18  1  0
 19 20  1  6
 19 22  1  0
 20 21  1  0
 22 23  1  1
 22 24  1  0
 24 25  1  6
 24 26  1  0
 26 27  1  1
 28 29  1  1
 28 30  1  0
 30 31  1  1
M  END

> <chembl_id>
CHEMBL221572

> <chembl_pref_name>
RIBOSTAMYCIN

$$$$

     RDKit          2D

 33 36  0  0  0  0  0  0  0  0999 V2000
    3.5500   -9.6458    0.0000 N   0  0  0  0  0  0  0  0  0  0  0  0
    3.5500   -8.9375    0.0000 C   0  0  0  0  0  0  0  0  0  0  0  0
    2.8375   -9.6500    0.0000 C   0  0  0  0  0  0  0  0  0  0  0  0
    2.8375   -8.9375    0.0000 C   0  0  0  0  0  0  0  0  0  0  0  0
   -0.8500   -8.9375    0.0000 N   0  0  0  0  0  0  0  0  0  0  0  0
    4.2250   -9.8625    0.0000 C   0  0  0  0  0  0  0  0  0  0  0  0
    4.2208   -8.7167    0.0000 S   0  0  0  0  0  0  0  0  0  0  0  0
   -0.2333   -8.5833    0.0000 C   0  0  0  0  0  0  0  0  0  0  0  0
    4.6417   -9.2875    0.0000 C   0  0  0  0  0  0  0  0  0  0  0  0
    2.2167   -8.5792    0.0000 N   0  0  0  0  0  0  0  0  0  0  0  0
   -1.4208   -8.5167    0.0000 C   0  0  0  0  0  0  0  0  0  0  0  0
    1.6042   -8.9375    0.0000 C   0  0  0  0  0  0  0  0  0  0  0  0
    0.3792   -8.9375    0.0000 N   0  0  0  0  0  0  0  0  0  0  0  0
    0.9917   -8.5833    0.0000 C   0  0  0  0  0  0  0  0  0  0  0  0
    4.2167  -10.5667    0.0000 C   0  0  0  0  0  0  0  0  0  0  0  0
   -1.9958   -8.9375    0.0000 N   0  0  0  0  0  0  0  0  0  0  0  0
    2.3375  -10.1500    0.0000 O   0  0  0  0  0  0  0  0  0  0  0  0
   -0.2333   -7.8750    0.0000 O   0  0  0  0  0  0  0  0  0  0  0  0
   -1.4208   -7.8083    0.0000 O   0  0  0  0  0  0  0  0  0  0  0  0
    1.6042   -9.6458    0.0000 O   0  0  0  0  0  0  0  0  0  0  0  0
    4.8292  -10.9292    0.0000 O   0  0  0  0  0  0  0  0  0  0  0  0
    3.6000  -10.9167    0.0000 O   0  0  0  0  0  0  0  0  0  0  0  0
    0.9917   -7.8750    0.0000 C   0  0  0  0  0  0  0  0  0  0  0  0
   -1.0667   -9.6083    0.0000 C   0  0  0  0  0  0  0  0  0  0  0  0
   -1.7750   -9.6083    0.0000 C   0  0  0  0  0  0  0  0  0  0  0  0
    5.2542   -9.6417    0.0000 C   0  0  0  0  0  0  0  0  0  0  0  0
    5.2542   -8.9292    0.0000 C   0  0  0  0  0  0  0  0  0  0  0  0
    1.6083   -7.5208    0.0000 C   0  0  0  0  0  0  0  0  0  0  0  0
    0.3833   -7.5250    0.0000 C   0  0  0  0  0  0  0  0  0  0  0  0
    0.3792   -6.8167    0.0000 C   0  0  0  0  0  0  0  0  0  0  0  0
    1.6083   -6.8125    0.0000 C   0  0  0  0  0  0  0  0  0  0  0  0
    0.9958   -6.4583    0.0000 C   0  0  0  0  0  0  0  0  0  0  0  0
    3.5417   -8.2292    0.0000 H   0  0  0  0  0  0  0  0  0  0  0  0
  2  1  1  0
  3  1  1  0
  4  2  1  0
  5  8  1  0
  6  1  1  0
  7  2  1  0
  8 13  1  0
  9  6  1  0
  4 10  1  1
 11  5  1  0
 12 10  1  0
 13 14  1  0
 14 12  1  0
  6 15  1  6
 16 11  1  0
 17  3  2  0
 18  8  2  0
 19 11  2  0
 20 12  2  0
 21 15  1  0
 22 15  2  0
 14 23  1  6
 24  5  1  0
 25 24  1  0
 26  9  1  0
 27  9  1  0
 28 23  2  0
 29 23  1  0
 30 29  2  0
 31 28  1  0
 32 30  1  0
  2 33  1  6
  7  9  1  0
  3  4  1  0
 32 31  2  0
 25 16  1  0
M  END

> <chembl_id>
CHEMBL1537

> <chembl_pref_name>
AZLOCILLIN

$$$$

     RDKit          2D

 59 63  0  0  0  0  0  0  0  0999 V2000
   12.3501  -25.4666    0.0000 C   0  0  0  0  0  0  0  0  0  0  0  0
   12.7607  -24.7549    0.0000 C   0  0  0  0  0  0  0  0  0  0  0  0
   11.4513  -24.4811    0.0000 C   0  0  0  0  0  0  0  0  0  0  0  0
   11.5471  -25.2932    0.0000 O   0  0  0  0  0  0  0  0  0  0  0  0
   12.2040  -24.1436    0.0000 N   0  0  0  0  0  0  0  0  0  0  0  0
   16.6112  -26.2787    0.0000 C   0  0  0  0  0  0  0  0  0  0  0  0
   13.3674  -24.5405    0.0000 C   0  0  0  0  0  0  0  0  0  0  0  0
   13.0526  -27.5333    0.0000 C   0  0  0  0  0  0  0  0  0  0  0  0
   14.4761  -27.5242    0.0000 C   0  0  0  0  0  0  0  0  0  0  0  0
   13.7643  -27.9485    0.0000 C   0  0  0  0  0  0  0  0  0  0  0  0
   17.3229  -26.6847    0.0000 C   0  0  0  0  0  0  0  0  0  0  0  0
   15.1878  -26.2878    0.0000 C   0  0  0  0  0  0  0  0  0  0  0  0
   14.4761  -26.7030    0.0000 C   0  0  0  0  0  0  0  0  0  0  0  0
    8.5360  -24.3853    0.0000 N   0  0  0  0  0  0  0  0  0  0  0  0
   13.7872  -23.8288    0.0000 C   0  0  0  0  0  0  0  0  0  0  0  0
   13.0526  -26.7030    0.0000 O   0  0  0  0  0  0  0  0  0  0  0  0
    8.0524  -23.7056    0.0000 C   0  0  0  0  0  0  0  0  0  0  0  0
   15.9087  -26.6893    0.0000 O   0  0  0  0  0  0  0  0  0  0  0  0
   18.0346  -26.2650    0.0000 C   0  0  0  0  0  0  0  0  0  0  0  0
   15.1833  -25.4575    0.0000 C   0  0  0  0  0  0  0  0  0  0  0  0
   12.3409  -26.2924    0.0000 C   0  0  0  0  0  0  0  0  0  0  0  0
   16.5975  -25.4575    0.0000 O   0  0  0  0  0  0  0  0  0  0  0  0
    8.5360  -23.0440    0.0000 C   0  0  0  0  0  0  0  0  0  0  0  0
    9.3298  -23.3041    0.0000 N   0  0  0  0  0  0  0  0  0  0  0  0
    9.3298  -24.1299    0.0000 C   0  0  0  0  0  0  0  0  0  0  0  0
   14.4624  -24.2257    0.0000 C   0  0  0  0  0  0  0  0  0  0  0  0
   14.4624  -25.0469    0.0000 C   0  0  0  0  0  0  0  0  0  0  0  0
   18.0301  -25.4438    0.0000 C   0  0  0  0  0  0  0  0  0  0  0  0
    7.2220  -23.7056    0.0000 C   0  0  0  0  0  0  0  0  0  0  0  0
   10.7351  -24.0751    0.0000 O   0  0  0  0  0  0  0  0  0  0  0  0
   18.7463  -26.6756    0.0000 N   0  0  0  0  0  0  0  0  0  0  0  0
   12.3364  -27.9439    0.0000 O   0  0  0  0  0  0  0  0  0  0  0  0
   15.1970  -27.9348    0.0000 O   0  0  0  0  0  0  0  0  0  0  0  0
   17.3092  -25.0423    0.0000 C   0  0  0  0  0  0  0  0  0  0  0  0
   13.7917  -23.0029    0.0000 O   0  0  0  0  0  0  0  0  0  0  0  0
    5.9902  -24.4173    0.0000 N   0  0  0  0  0  0  0  0  0  0  0  0
   17.3321  -27.5105    0.0000 O   0  0  0  0  0  0  0  0  0  0  0  0
   11.7616  -26.0460    0.0000 C   0  0  0  0  0  0  0  0  0  0  0  0
   15.5939  -24.7458    0.0000 O   0  0  0  0  0  0  0  0  0  0  0  0
   12.1996  -23.3177    0.0000 C   0  0  0  0  0  0  0  0  0  0  0  0
   13.7780  -25.2522    0.0000 C   0  0  0  0  0  0  0  0  0  0  0  0
   13.7643  -28.7697    0.0000 C   0  0  0  0  0  0  0  0  0  0  0  0
   13.7599  -26.2924    0.0000 C   0  0  0  0  0  0  0  0  0  0  0  0
    6.8114  -24.4173    0.0000 C   0  0  0  0  0  0  0  0  0  0  0  0
   16.0090  -25.4575    0.0000 C   0  0  0  0  0  0  0  0  0  0  0  0
   10.0507  -22.8980    0.0000 C   0  0  0  0  0  0  0  0  0  0  0  0
   11.6292  -26.7030    0.0000 C   0  0  0  0  0  0  0  0  0  0  0  0
   15.1741  -23.8105    0.0000 C   0  0  0  0  0  0  0  0  0  0  0  0
    6.8206  -22.9939    0.0000 C   0  0  0  0  0  0  0  0  0  0  0  0
    5.5796  -23.7010    0.0000 C   0  0  0  0  0  0  0  0  0  0  0  0
   18.7555  -27.5059    0.0000 C   0  0  0  0  0  0  0  0  0  0  0  0
   19.4673  -26.2604    0.0000 C   0  0  0  0  0  0  0  0  0  0  0  0
   17.3092  -24.2120    0.0000 C   0  0  0  0  0  0  0  0  0  0  0  0
   16.4196  -24.7458    0.0000 C   0  0  0  0  0  0  0  0  0  0  0  0
   11.4786  -22.9071    0.0000 C   0  0  0  0  0  0  0  0  0  0  0  0
   10.7669  -23.3087    0.0000 C   0  0  0  0  0  0  0  0  0  0  0  0
    5.9994  -22.9893    0.0000 C   0  0  0  0  0  0  0  0  0  0  0  0
   10.9130  -26.2924    0.0000 C   0  0  0  0  0  0  0  0  0  0  0  0
   12.9705  -23.9519    0.0000 H   0  0  0  0  0  0  0  0  0  0  0  0
  2  1  1  0
  3  4  1  0
  4  1  1  0
  5  2  1  0
  6 18  1  6
  7  2  1  0
  8 16  1  0
  9 10  1  0
 10  8  1  0
 11  6  1  0
 12 13  1  0
 13  9  1  0
 14 25  2  0
 15  7  1  0
 16 21  1  0
 17 23  2  0
 12 18  1  6
 19 11  1  0
 20 27  1  0
 21  1  1  0
 22  6  1  0
 23 24  1  0
 24 46  1  0
 25 24  1  0
 26 15  1  0
 27 26  1  0
 28 34  1  0
 29 17  1  0
 30  3  2  0
 19 31  1  6
 32  8  2  0
 33  9  2  0
 34 22  1  0
 35 15  2  0
 36 44  2  0
 11 37  1  1
  1 38  1  6
 20 39  1  1
 40  5  1  0
  7 41  1  6
 10 42  1  1
 13 43  1  6
 44 29  1  0
 45 20  1  0
 46 56  1  0
 21 47  1  6
 26 48  1  6
 49 29  2  0
 50 57  2  0
 51 31  1  0
 52 31  1  0
 34 53  1  6
 54 39  1  0
 55 40  1  0
 56 55  1  0
 57 49  1  0
 58 47  1  0
  2 59  1  1
  5  3  1  0
 12 20  1  0
 17 14  1  0
 19 28  1  0
 36 50  1  0
M  END

> <chembl_id>
CHEMBL1136

> <chembl_pref_name>
TELITHROMYCIN

$$$$

     RDKit          2D

 25 28  0  0  0  0  0  0  0  0999 V2000
    4.3827   -0.5610    0.0000 S   0  0  0  0  0  0  0  0  0  0  0  0
    5.8116    1.9140    0.0000 F   0  0  0  0  0  0  0  0  0  0  0  0
    7.9551   -0.1485    0.0000 O   0  0  0  0  0  0  0  0  0  0  0  0
    7.9551   -2.6235    0.0000 O   0  0  0  0  0  0  0  0  0  0  0  0
    8.6695   -1.3860    0.0000 O   0  0  0  0  0  0  0  0  0  0  0  0
    5.8116   -1.3860    0.0000 N   0  0  0  0  0  0  0  0  0  0  0  0
    4.3827    1.0890    0.0000 N   0  0  0  0  0  0  0  0  0  0  0  0
    2.9538    1.9140    0.0000 N   0  0  0  0  0  0  0  0  0  0  0  0
    5.8116   -0.5610    0.0000 C   0  0  0  0  0  0  0  0  0  0  0  0
    5.0972   -0.1485    0.0000 C   0  0  0  0  0  0  0  0  0  0  0  0
    6.5261   -0.1485    0.0000 C   0  0  0  0  0  0  0  0  0  0  0  0
    5.0972    0.6765    0.0000 C   0  0  0  0  0  0  0  0  0  0  0  0
    7.2406   -0.5610    0.0000 C   0  0  0  0  0  0  0  0  0  0  0  0
    5.8116    1.0890    0.0000 C   0  0  0  0  0  0  0  0  0  0  0  0
    7.2406   -1.3860    0.0000 C   0  0  0  0  0  0  0  0  0  0  0  0
    6.5261    0.6765    0.0000 C   0  0  0  0  0  0  0  0  0  0  0  0
    6.5261   -1.7985    0.0000 C   0  0  0  0  0  0  0  0  0  0  0  0
    5.0972   -1.7985    0.0000 C   0  0  0  0  0  0  0  0  0  0  0  0
    4.3827   -1.3860    0.0000 C   0  0  0  0  0  0  0  0  0  0  0  0
    7.9551   -1.7985    0.0000 C   0  0  0  0  0  0  0  0  0  0  0  0
    3.6682    0.6765    0.0000 C   0  0  0  0  0  0  0  0  0  0  0  0
    4.3827    1.9140    0.0000 C   0  0  0  0  0  0  0  0  0  0  0  0
    2.9538    1.0890    0.0000 C   0  0  0  0  0  0  0  0  0  0  0  0
    3.6682    2.3265    0.0000 C   0  0  0  0  0  0  0  0  0  0  0  0
    2.2393    2.3265    0.0000 C   0  0  0  0  0  0  0  0  0  0  0  0
  1 10  1  0
  1 19  1  0
  2 14  1  0
  3 13  2  0
  4 20  2  0
  5 20  1  0
  6  9  1  0
  6 17  1  0
  6 18  1  0
  7 12  1  0
  7 21  1  0
  7 22  1  0
  8 23  1  0
  8 24  1  0
  8 25  1  0
  9 10  2  0
  9 11  1  0
 10 12  1  0
 11 13  1  0
 11 16  2  0
 12 14  2  0
 13 15  1  0
 14 16  1  0
 15 17  2  0
 15 20  1  0
 18 19  1  0
 21 23  1  0
 22 24  1  0
M  END

> <chembl_id>
CHEMBL295619

> <chembl_pref_name>
RUFLOXACIN

$$$$

     RDKit          2D

 48 51  0  0  1  0  0  0  0  0999 V2000
   -0.3458   -0.8625    0.0000 C   0  0  0  0  0  0  0  0  0  0  0  0
    3.1250   -0.8917    0.0000 C   0  0  0  0  0  0  0  0  0  0  0  0
    0.8417   -2.2542    0.0000 C   0  0  0  0  0  0  0  0  0  0  0  0
   -0.3583   -2.2542    0.0000 C   0  0  0  0  0  0  0  0  0  0  0  0
   -0.9625   -1.2375    0.0000 C   0  0  0  0  0  0  0  0  0  0  0  0
    0.2667   -1.9167    0.0000 C   0  0  0  0  0  0  0  0  0  0  0  0
    3.5375   -0.2625    0.0000 C   0  0  0  0  0  0  0  0  0  0  0  0
    0.0417   -0.2542    0.0000 O   0  0  0  0  0  0  0  0  0  0  0  0
    1.4542   -1.9167    0.0000 C   0  0  0  0  0  0  0  0  0  0  0  0
   -1.5625   -0.8875    0.0000 C   0  0  0  0  0  0  0  0  0  0  0  0
    1.4542   -1.2375    0.0000 C   0  0  0  0  0  0  0  0  0  0  0  0
   -0.9750   -2.0417    0.0000 O   0  0  0  0  0  0  0  0  0  0  0  0
    2.2250   -0.8917    0.0000 O   0  0  0  0  0  0  0  0  0  0  0  0
    4.4917   -0.2625    0.0000 C   0  0  0  0  0  0  0  0  0  0  0  0
   -2.1708   -1.2375    0.0000 C   0  0  0  0  0  0  0  0  0  0  0  0
    0.4375   -4.2167    0.0000 C   0  0  0  0  0  0  0  0  0  0  0  0
   -0.7333   -0.2167    0.0000 C   0  0  0  0  0  0  0  0  0  0  0  0
   -2.1708   -1.9167    0.0000 C   0  0  0  0  0  0  0  0  0  0  0  0
    3.5667   -1.4292    0.0000 O   0  0  0  0  0  0  0  0  0  0  0  0
    0.0500   -3.6375    0.0000 O   0  0  0  0  0  0  0  0  0  0  0  0
    0.0292   -4.7792    0.0000 C   0  0  0  0  0  0  0  0  0  0  0  0
   -1.5625   -2.2542    0.0000 C   0  0  0  0  0  0  0  0  0  0  0  0
    0.2667   -1.2375    0.0000 C   0  0  0  0  0  0  0  0  0  0  0  0
   -1.3208   -4.2417    0.0000 C   0  0  0  0  0  0  0  0  0  0  0  0
   -0.8833   -4.7792    0.0000 C   0  0  0  0  0  0  0  0  0  0  0  0
    0.8417   -3.2542    0.0000 O   0  0  0  0  0  0  0  0  0  0  0  0
   -0.9750   -3.6292    0.0000 C   0  0  0  0  0  0  0  0  0  0  0  0
    0.8417   -0.8875    0.0000 C   0  0  0  0  0  0  0  0  0  0  0  0
    4.9292   -0.8042    0.0000 C   0  0  0  0  0  0  0  0  0  0  0  0
    4.8792    0.4083    0.0000 N   0  0  0  0  0  0  0  0  0  0  0  0
   -0.3583   -2.7500    0.0000 O   0  0  0  0  0  0  0  0  0  0  0  0
    4.5625   -1.4292    0.0000 C   0  0  0  0  0  0  0  0  0  0  0  0
   -0.9750   -1.6125    0.0000 O   0  0  0  0  0  0  0  0  0  0  0  0
    3.2167    0.3708    0.0000 O   0  0  0  0  0  0  0  0  0  0  0  0
   -2.6333   -0.9250    0.0000 O   0  0  0  0  0  0  0  0  0  0  0  0
   -2.1333   -4.2167    0.0000 O   0  0  0  0  0  0  0  0  0  0  0  0
   -1.2708   -5.4417    0.0000 O   0  0  0  0  0  0  0  0  0  0  0  0
    0.2500   -1.4042    0.0000 C   0  0  0  0  0  0  0  0  0  0  0  0
    1.9792   -2.2292    0.0000 C   0  0  0  0  0  0  0  0  0  0  0  0
   -1.5625   -0.3000    0.0000 C   0  0  0  0  0  0  0  0  0  0  0  0
   -2.6500   -2.1917    0.0000 C   0  0  0  0  0  0  0  0  0  0  0  0
   -1.5583   -2.7667    0.0000 C   0  0  0  0  0  0  0  0  0  0  0  0
   -1.4333   -3.2042    0.0000 C   0  0  0  0  0  0  0  0  0  0  0  0
    0.8542   -0.3417    0.0000 C   0  0  0  0  0  0  0  0  0  0  0  0
    5.5292    0.4083    0.0000 C   0  0  0  0  0  0  0  0  0  0  0  0
    4.5417    1.0375    0.0000 C   0  0  0  0  0  0  0  0  0  0  0  0
    4.8792   -1.8875    0.0000 C   0  0  0  0  0  0  0  0  0  0  0  0
   -1.8583   -5.4417    0.0000 C   0  0  0  0  0  0  0  0  0  0  0  0
  2 13  1  1
  3  9  1  0
  4  6  1  0
  5  1  1  0
  6  3  1  0
  7  2  1  0
  1  8  1  1
  9 11  1  0
 10  5  1  0
 11 28  1  0
 12 22  1  0
 11 13  1  6
 14  7  1  0
 15 10  1  0
 16 26  1  1
 17  1  1  0
 18 15  1  0
 19  2  1  0
 20 16  1  0
 21 16  1  0
 22 18  1  0
 23  1  1  0
 24 25  1  0
 25 21  1  0
  3 26  1  6
 27 20  1  0
 28 23  1  0
 29 32  1  0
 14 30  1  1
 31  4  2  0
 32 19  1  0
 33  5  2  0
  7 34  1  6
 15 35  1  6
 24 36  1  1
 25 37  1  6
  6 38  1  6
  9 39  1  1
 10 40  1  1
 18 41  1  6
 22 42  1  6
 27 43  1  6
 28 44  1  6
 45 30  1  0
 46 30  1  0
 32 47  1  1
 48 37  1  0
 17  8  1  0
  4 12  1  0
 14 29  1  0
 27 24  1  0
M  END

> <chembl_id>
CHEMBL606258

> <chembl_pref_name>
OLEANDOMYCIN

$$$$

     RDKit          2D

 19 21  0  0  0  0  0  0  0  0999 V2000
   -2.0875    1.0458    0.0000 C   0  0  0  0  0  0  0  0  0  0  0  0
   -1.3833   -0.0542    0.0000 C   0  0  0  0  0  0  0  0  0  0  0  0
    0.0542   -0.0917    0.0000 C   0  0  0  0  0  0  0  0  0  0  0  0
   -2.7083    2.3208    0.0000 C   0  0  0  0  0  0  0  0  0  0  0  0
   -1.8083   -1.0917    0.0000 C   0  0  0  0  0  0  0  0  0  0  0  0
   -2.7333    0.3208    0.0000 C   0  0  0  0  0  0  0  0  0  0  0  0
    0.7417    1.1208    0.0000 C   0  0  0  0  0  0  0  0  0  0  0  0
    0.7417   -1.3542    0.0000 C   0  0  0  0  0  0  0  0  0  0  0  0
   -3.8333    0.8083    0.0000 C   0  0  0  0  0  0  0  0  0  0  0  0
    2.2042    1.1208    0.0000 C   0  0  0  0  0  0  0  0  0  0  0  0
    2.1917   -1.3542    0.0000 C   0  0  0  0  0  0  0  0  0  0  0  0
    2.9042   -0.1292    0.0000 C   0  0  0  0  0  0  0  0  0  0  0  0
   -4.3458   -0.1292    0.0000 C   0  0  0  0  0  0  0  0  0  0  0  0
    0.0542   -2.6167    0.0000 O   0  0  0  0  0  0  0  0  0  0  0  0
   -1.1583    1.7958    0.0000 C   0  0  0  0  0  0  0  0  0  0  0  0
   -3.5250    2.7708    0.0000 C   0  0  0  0  0  0  0  0  0  0  0  0
   -1.9125    2.9625    0.0000 C   0  0  0  0  0  0  0  0  0  0  0  0
    2.9292    2.3625    0.0000 C   0  0  0  0  0  0  0  0  0  0  0  0
    4.3417   -0.1542    0.0000 C   0  0  0  0  0  0  0  0  0  0  0  0
  2  1  1  0
  3  2  1  0
  4  1  1  0
  5  2  1  0
  6  4  1  0
  7  3  1  0
  8  3  2  0
  9  1  1  0
 10  7  2  0
 11  8  1  0
 12 11  2  0
 13  9  1  0
 14  8  1  0
 15  1  1  0
 16  4  1  0
 17  4  1  0
 18 10  1  0
 19 12  1  0
  6 13  1  0
  5  6  1  0
 10 12  1  0
M  END

> <chembl_id>
CHEMBL2104519

> <chembl_pref_name>
XIBORNOL

$$$$

     RDKit          2D

 27 30  0  0  0  0  0  0  0  0999 V2000
    1.5667   -0.8833    0.0000 N   0  0  0  0  0  0  0  0  0  0  0  0
    2.2958    0.3542    0.0000 C   0  0  0  0  0  0  0  0  0  0  0  0
    0.8583   -0.4667    0.0000 C   0  0  0  0  0  0  0  0  0  0  0  0
    0.8625    0.3625    0.0000 C   0  0  0  0  0  0  0  0  0  0  0  0
    2.2875   -0.4750    0.0000 C   0  0  0  0  0  0  0  0  0  0  0  0
    1.5792    0.7750    0.0000 C   0  0  0  0  0  0  0  0  0  0  0  0
    0.1417   -0.8750    0.0000 C   0  0  0  0  0  0  0  0  0  0  0  0
   -1.2833   -0.8667    0.0000 N   0  0  0  0  0  0  0  0  0  0  0  0
   -0.5667   -0.4583    0.0000 C   0  0  0  0  0  0  0  0  0  0  0  0
    1.5625   -1.7083    0.0000 C   0  0  0  0  0  0  0  0  0  0  0  0
    3.0125    0.7625    0.0000 C   0  0  0  0  0  0  0  0  0  0  0  0
    0.1417    0.7792    0.0000 C   0  0  0  0  0  0  0  0  0  0  0  0
    1.1458   -2.4167    0.0000 C   0  0  0  0  0  0  0  0  0  0  0  0
    1.9708   -2.4250    0.0000 C   0  0  0  0  0  0  0  0  0  0  0  0
   -0.5708    0.3625    0.0000 C   0  0  0  0  0  0  0  0  0  0  0  0
   -2.0000   -0.4500    0.0000 C   0  0  0  0  0  0  0  0  0  0  0  0
   -1.2833   -1.6917    0.0000 C   0  0  0  0  0  0  0  0  0  0  0  0
    1.5833    1.6000    0.0000 O   0  0  0  0  0  0  0  0  0  0  0  0
    3.0208    1.5875    0.0000 O   0  0  0  0  0  0  0  0  0  0  0  0
   -2.7083   -0.8667    0.0000 C   0  0  0  0  0  0  0  0  0  0  0  0
    0.1375   -1.7000    0.0000 O   0  0  0  0  0  0  0  0  0  0  0  0
   -2.0000   -2.1000    0.0000 C   0  0  0  0  0  0  0  0  0  0  0  0
   -2.7083   -1.6917    0.0000 C   0  0  0  0  0  0  0  0  0  0  0  0
    3.7208    0.3417    0.0000 O   0  0  0  0  0  0  0  0  0  0  0  0
   -3.4250   -0.4583    0.0000 N   0  0  0  0  0  0  0  0  0  0  0  0
   -2.0000   -2.9292    0.0000 C   0  0  0  0  0  0  0  0  0  0  0  0
   -0.5792   -2.1083    0.0000 C   0  0  0  0  0  0  0  0  0  0  0  0
  2  5  2  0
  3  1  1  0
  4  3  2  0
  5  1  1  0
  6  2  1  0
  7  3  1  0
  8  9  1  0
  9  7  2  0
 10  1  1  0
 11  2  1  0
 12  4  1  0
 13 10  1  0
 14 10  1  0
 15 12  2  0
 16  8  1  0
 17  8  1  0
 18  6  2  0
 19 11  2  0
 20 16  1  0
 21  7  1  0
 22 17  1  0
 23 20  1  0
 24 11  1  0
 20 25  1  6
 22 26  1  1
 27 21  1  0
 13 14  1  0
  6  4  1  0
  9 15  1  0
 22 23  1  0
M  END

> <chembl_id>
CHEMBL1213456

> <chembl_pref_name>
NEMONOXACIN

$$$$

     RDKit          2D

 33 35  0  0  0  0  0  0  0  0999 V2000
   18.9250  -24.7417    0.0000 C   0  0  0  0  0  0  0  0  0  0  0  0
   23.2083  -24.7458    0.0000 C   0  0  0  0  0  0  0  0  0  0  0  0
   21.7750  -24.7458    0.0000 C   0  0  0  0  0  0  0  0  0  0  0  0
   20.3500  -24.7417    0.0000 C   0  0  0  0  0  0  0  0  0  0  0  0
   23.9208  -24.3333    0.0000 C   0  0  0  0  0  0  0  0  0  0  0  0
   18.9250  -25.5708    0.0000 C   0  0  0  0  0  0  0  0  0  0  0  0
   21.0625  -24.3292    0.0000 C   0  0  0  0  0  0  0  0  0  0  0  0
   24.6333  -24.7583    0.0000 C   0  0  0  0  0  0  0  0  0  0  0  0
   18.2000  -25.9833    0.0000 C   0  0  0  0  0  0  0  0  0  0  0  0
   18.2000  -24.3208    0.0000 O   0  0  0  0  0  0  0  0  0  0  0  0
   23.2000  -25.5708    0.0000 O   0  0  0  0  0  0  0  0  0  0  0  0
   19.6375  -24.3292    0.0000 O   0  0  0  0  0  0  0  0  0  0  0  0
   22.4958  -24.3333    0.0000 O   0  0  0  0  0  0  0  0  0  0  0  0
   24.6250  -25.5833    0.0000 C   0  0  0  0  0  0  0  0  0  0  0  0
   17.4875  -25.5708    0.0000 C   0  0  0  0  0  0  0  0  0  0  0  0
   17.4875  -24.7417    0.0000 C   0  0  0  0  0  0  0  0  0  0  0  0
   23.9083  -25.9917    0.0000 C   0  0  0  0  0  0  0  0  0  0  0  0
   21.7750  -25.5708    0.0000 C   0  0  0  0  0  0  0  0  0  0  0  0
   20.3500  -25.5667    0.0000 C   0  0  0  0  0  0  0  0  0  0  0  0
   21.0583  -25.9792    0.0000 C   0  0  0  0  0  0  0  0  0  0  0  0
   25.3500  -24.3542    0.0000 N   0  0  0  0  0  0  0  0  0  0  0  0
   23.9250  -23.5167    0.0000 O   0  0  0  0  0  0  0  0  0  0  0  0
   18.9125  -26.3958    0.0000 O   0  0  0  0  0  0  0  0  0  0  0  0
   21.0625  -23.5042    0.0000 O   0  0  0  0  0  0  0  0  0  0  0  0
   18.2000  -26.8083    0.0000 O   0  0  0  0  0  0  0  0  0  0  0  0
   22.4875  -25.9833    0.0000 N   0  0  0  0  0  0  0  0  0  0  0  0
   19.6333  -25.9708    0.0000 N   0  0  0  0  0  0  0  0  0  0  0  0
   25.3375  -26.0042    0.0000 O   0  0  0  0  0  0  0  0  0  0  0  0
   16.7750  -25.9833    0.0000 O   0  0  0  0  0  0  0  0  0  0  0  0
   16.7750  -24.3292    0.0000 C   0  0  0  0  0  0  0  0  0  0  0  0
   23.9000  -26.8167    0.0000 C   0  0  0  0  0  0  0  0  0  0  0  0
   16.7750  -23.5042    0.0000 N   0  0  0  0  0  0  0  0  0  0  0  0
   23.1833  -27.2208    0.0000 O   0  0  0  0  0  0  0  0  0  0  0  0
  2 13  1  6
  3  7  1  0
  4 12  1  1
  5  2  1  0
  6  1  1  0
  7  4  1  0
  8  5  1  0
  9  6  1  0
 10  1  1  0
 11  2  1  0
  1 12  1  6
  3 13  1  1
 14 17  1  0
 15 16  1  0
 16 10  1  0
 17 11  1  0
 18 20  1  0
 19  4  1  0
 20 19  1  0
  8 21  1  1
  5 22  1  6
  6 23  1  6
  7 24  1  6
  9 25  1  1
 18 26  1  6
 19 27  1  6
 14 28  1  6
 15 29  1  6
 16 30  1  1
 17 31  1  1
 32 30  1  0
 33 31  1  0
 15  9  1  0
 18  3  1  0
 14  8  1  0
M  END

> <chembl_id>
CHEMBL1384

> <chembl_pref_name>
KANAMYCIN

$$$$

     RDKit          2D

 27 29  0  0  1  0  0  0  0  0999 V2000
   -1.7625    0.6000    0.0000 N   0  0  0  0  0  0  0  0  0  0  0  0
   -1.4750   -0.3250    0.0000 C   0  0  0  0  0  0  0  0  0  0  0  0
   -0.8708    0.8958    0.0000 C   0  0  0  0  0  0  0  0  0  0  0  0
   -0.5750   -0.0292    0.0000 C   0  0  0  0  0  0  0  0  0  0  0  0
   -2.6958    0.6000    0.0000 C   0  0  0  0  0  0  0  0  0  0  0  0
   -2.2458   -0.8542    0.0000 S   0  0  0  0  0  0  0  0  0  0  0  0
   -2.9833   -0.2667    0.0000 C   0  0  0  0  0  0  0  0  0  0  0  0
    0.2917   -0.4542    0.0000 N   0  0  0  0  0  0  0  0  0  0  0  0
    1.0875    0.0750    0.0000 C   0  0  0  0  0  0  0  0  0  0  0  0
    2.8292   -1.7542    0.0000 N   0  0  0  0  0  0  0  0  0  0  0  0
    1.9375   -0.3792    0.0000 C   0  0  0  0  0  0  0  0  0  0  0  0
   -3.2500    1.3958    0.0000 C   0  0  0  0  0  0  0  0  0  0  0  0
    3.7042   -2.1750    0.0000 N   0  0  0  0  0  0  0  0  0  0  0  0
    1.9500   -1.3417    0.0000 N   0  0  0  0  0  0  0  0  0  0  0  0
   -0.4208    1.7458    0.0000 O   0  0  0  0  0  0  0  0  0  0  0  0
    1.0875    1.0125    0.0000 O   0  0  0  0  0  0  0  0  0  0  0  0
    2.7292    0.1500    0.0000 C   0  0  0  0  0  0  0  0  0  0  0  0
   -4.2250    1.3958    0.0000 O   0  0  0  0  0  0  0  0  0  0  0  0
   -2.8500    2.2458    0.0000 O   0  0  0  0  0  0  0  0  0  0  0  0
   -3.9375   -0.1375    0.0000 C   0  0  0  0  0  0  0  0  0  0  0  0
   -3.5625   -1.0375    0.0000 C   0  0  0  0  0  0  0  0  0  0  0  0
    2.7167    1.1083    0.0000 C   0  0  0  0  0  0  0  0  0  0  0  0
    3.5792   -0.3000    0.0000 C   0  0  0  0  0  0  0  0  0  0  0  0
    4.3417    0.2583    0.0000 C   0  0  0  0  0  0  0  0  0  0  0  0
    3.4417    1.6333    0.0000 C   0  0  0  0  0  0  0  0  0  0  0  0
    4.3417    1.1583    0.0000 C   0  0  0  0  0  0  0  0  0  0  0  0
   -1.0583   -1.1750    0.0000 H   0  0  0  0  0  0  0  0  0  0  0  0
  2  1  1  0
  3  1  1  0
  4  3  1  0
  5  1  1  0
  6  2  1  0
  7  5  1  0
  4  8  1  1
  9  8  1  0
 10 14  2  0
 11  9  1  0
  5 12  1  6
 13 10  2  0
 11 14  1  1
 15  3  2  0
 16  9  2  0
 17 11  1  0
 18 12  2  0
 19 12  1  0
 20  7  1  0
 21  7  1  0
 22 17  2  0
 23 17  1  0
 24 23  2  0
 25 22  1  0
 26 24  1  0
  2 27  1  6
  6  7  1  0
  2  4  1  0
 25 26  2  0
M  CHG  2  10   1  13  -1
M  END

> <chembl_id>
CHEMBL2105907

> <chembl_pref_name>
AZIDOCILLIN

$$$$

     RDKit          2D

 17 18  0  0  0  0  0  0  0  0999 V2000
   13.8799  -11.0610    0.0000 S   0  0  0  0  0  0  0  0  0  0  0  0
   14.5898  -10.6565    0.0000 N   0  0  0  0  0  0  0  0  0  0  0  0
   15.2542  -11.1394    0.0000 C   0  0  0  0  0  0  0  0  0  0  0  0
   16.0343  -10.8835    0.0000 N   0  0  0  0  0  0  0  0  0  0  0  0
   15.2584  -11.9566    0.0000 C   0  0  0  0  0  0  0  0  0  0  0  0
   16.5172  -11.5439    0.0000 O   0  0  0  0  0  0  0  0  0  0  0  0
   13.1782  -10.6524    0.0000 C   0  0  0  0  0  0  0  0  0  0  0  0
   16.0384  -12.2083    0.0000 C   0  0  0  0  0  0  0  0  0  0  0  0
   14.2802  -11.7667    0.0000 O   0  0  0  0  0  0  0  0  0  0  0  0
   13.4630  -11.7667    0.0000 O   0  0  0  0  0  0  0  0  0  0  0  0
   12.4684  -11.0610    0.0000 C   0  0  0  0  0  0  0  0  0  0  0  0
   13.1865   -9.8476    0.0000 C   0  0  0  0  0  0  0  0  0  0  0  0
   11.7543   -9.8352    0.0000 C   0  0  0  0  0  0  0  0  0  0  0  0
   11.0610   -9.4142    0.0000 N   0  0  0  0  0  0  0  0  0  0  0  0
   11.7543  -10.6400    0.0000 C   0  0  0  0  0  0  0  0  0  0  0  0
   12.4807   -9.4266    0.0000 C   0  0  0  0  0  0  0  0  0  0  0  0
   16.2902  -12.9843    0.0000 C   0  0  0  0  0  0  0  0  0  0  0  0
  2  1  1  0
  3  2  1  0
  4  3  2  0
  5  3  1  0
  6  4  1  0
  7  1  1  0
  8  5  2  0
  9  1  2  0
 10  1  2  0
 11  7  1  0
 12  7  2  0
 13 15  1  0
 14 13  1  0
 15 11  2  0
 16 12  1  0
 17  8  1  0
 16 13  2  0
  6  8  1  0
M  END

> <chembl_id>
CHEMBL443

> <chembl_pref_name>
SULFAMETHOXAZOLE

$$$$

     RDKit          2D

 26 28  0  0  0  0  0  0  0  0999 V2000
    4.9292   -7.6750    0.0000 N   0  0  0  0  0  0  0  0  0  0  0  0
    4.2167   -7.6750    0.0000 C   0  0  0  0  0  0  0  0  0  0  0  0
    4.2167   -6.9625    0.0000 C   0  0  0  0  0  0  0  0  0  0  0  0
    4.9292   -6.9667    0.0000 C   0  0  0  0  0  0  0  0  0  0  0  0
    5.5375   -8.0292    0.0000 C   0  0  0  0  0  0  0  0  0  0  0  0
    3.6000   -6.6042    0.0000 N   0  0  0  0  0  0  0  0  0  0  0  0
    5.5375   -6.6125    0.0000 S   0  0  0  0  0  0  0  0  0  0  0  0
    2.9833   -6.9625    0.0000 C   0  0  0  0  0  0  0  0  0  0  0  0
    6.1500   -7.6750    0.0000 C   0  0  0  0  0  0  0  0  0  0  0  0
    5.5375   -8.7375    0.0000 C   0  0  0  0  0  0  0  0  0  0  0  0
    2.3708   -6.6083    0.0000 C   0  0  0  0  0  0  0  0  0  0  0  0
    6.1500   -6.9667    0.0000 C   0  0  0  0  0  0  0  0  0  0  0  0
    3.7167   -8.1750    0.0000 O   0  0  0  0  0  0  0  0  0  0  0  0
    2.9833   -7.6708    0.0000 O   0  0  0  0  0  0  0  0  0  0  0  0
    1.7583   -6.9625    0.0000 C   0  0  0  0  0  0  0  0  0  0  0  0
    4.9250   -9.0917    0.0000 O   0  0  0  0  0  0  0  0  0  0  0  0
    1.1458   -6.6042    0.0000 C   0  0  0  0  0  0  0  0  0  0  0  0
    1.7583   -7.6625    0.0000 C   0  0  0  0  0  0  0  0  0  0  0  0
    2.3708   -5.9000    0.0000 N   0  0  0  0  0  0  0  0  0  0  0  0
    6.1542   -9.0917    0.0000 O   0  0  0  0  0  0  0  0  0  0  0  0
    0.5333   -7.6667    0.0000 C   0  0  0  0  0  0  0  0  0  0  0  0
    0.5333   -6.9583    0.0000 C   0  0  0  0  0  0  0  0  0  0  0  0
    1.1500   -8.0208    0.0000 C   0  0  0  0  0  0  0  0  0  0  0  0
    6.7667   -8.0250    0.0000 C   0  0  0  0  0  0  0  0  0  0  0  0
   -0.0792   -8.0208    0.0000 O   0  0  0  0  0  0  0  0  0  0  0  0
    4.9250   -6.2542    0.0000 H   0  0  0  0  0  0  0  0  0  0  0  0
  2  1  1  0
  3  4  1  0
  4  1  1  0
  5  1  1  0
  3  6  1  1
  7  4  1  0
  8  6  1  0
  9  5  2  0
 10  5  1  0
 11  8  1  0
 12  9  1  0
 13  2  2  0
 14  8  2  0
 15 11  1  0
 16 10  2  0
 17 15  2  0
 18 15  1  0
 11 19  1  1
 20 10  1  0
 21 23  1  0
 22 17  1  0
 23 18  2  0
 24  9  1  0
 25 21  1  0
  4 26  1  6
  2  3  1  0
  7 12  1  0
 21 22  2  0
M  END

> <chembl_id>
CHEMBL1644

> <chembl_pref_name>
CEFADROXIL

$$$$

     RDKit          2D

 37 40  0  0  0  0  0  0  0  0999 V2000
    5.1875   -7.8417    0.0000 C   0  0  0  0  0  0  0  0  0  0  0  0
    5.8917   -8.5500    0.0000 N   0  0  0  0  0  0  0  0  0  0  0  0
    5.1875   -8.5500    0.0000 C   0  0  0  0  0  0  0  0  0  0  0  0
    5.8958   -7.8417    0.0000 C   0  0  0  0  0  0  0  0  0  0  0  0
    2.4750   -6.9917    0.0000 C   0  0  0  0  0  0  0  0  0  0  0  0
    8.9583   -8.9000    0.0000 C   0  0  0  0  0  0  0  0  0  0  0  0
    6.5042   -8.9042    0.0000 C   0  0  0  0  0  0  0  0  0  0  0  0
    4.5667   -7.4875    0.0000 N   0  0  0  0  0  0  0  0  0  0  0  0
    1.8542   -6.6375    0.0000 C   0  0  0  0  0  0  0  0  0  0  0  0
    2.6625   -7.6750    0.0000 S   0  0  0  0  0  0  0  0  0  0  0  0
    3.1583   -6.8083    0.0000 S   0  0  0  0  0  0  0  0  0  0  0  0
    9.5375   -8.4833    0.0000 N   0  0  0  0  0  0  0  0  0  0  0  0
    9.1792   -9.5792    0.0000 N   0  0  0  0  0  0  0  0  0  0  0  0
    9.8917   -9.5792    0.0000 N   0  0  0  0  0  0  0  0  0  0  0  0
    3.3417   -7.4875    0.0000 C   0  0  0  0  0  0  0  0  0  0  0  0
   10.1083   -8.9000    0.0000 N   0  0  0  0  0  0  0  0  0  0  0  0
    6.5042   -7.4875    0.0000 S   0  0  0  0  0  0  0  0  0  0  0  0
    7.1167   -8.5500    0.0000 C   0  0  0  0  0  0  0  0  0  0  0  0
    3.9542   -7.8417    0.0000 C   0  0  0  0  0  0  0  0  0  0  0  0
    1.8542   -5.9292    0.0000 C   0  0  0  0  0  0  0  0  0  0  0  0
    6.5042   -9.6125    0.0000 C   0  0  0  0  0  0  0  0  0  0  0  0
    1.2417   -6.9917    0.0000 C   0  0  0  0  0  0  0  0  0  0  0  0
    8.3458   -8.5458    0.0000 S   0  0  0  0  0  0  0  0  0  0  0  0
    7.1167   -7.8417    0.0000 C   0  0  0  0  0  0  0  0  0  0  0  0
    4.6833   -9.0500    0.0000 O   0  0  0  0  0  0  0  0  0  0  0  0
    7.7333   -8.9000    0.0000 C   0  0  0  0  0  0  0  0  0  0  0  0
    5.1792   -7.1292    0.0000 O   0  0  0  0  0  0  0  0  0  0  0  0
    1.2417   -5.5750    0.0000 O   0  0  0  0  0  0  0  0  0  0  0  0
    7.1208   -9.9667    0.0000 O   0  0  0  0  0  0  0  0  0  0  0  0
    3.9583   -8.5500    0.0000 O   0  0  0  0  0  0  0  0  0  0  0  0
    2.4667   -5.5708    0.0000 O   0  0  0  0  0  0  0  0  0  0  0  0
    5.8917   -9.9667    0.0000 O   0  0  0  0  0  0  0  0  0  0  0  0
    1.2458   -7.7000    0.0000 O   0  0  0  0  0  0  0  0  0  0  0  0
    0.6292   -6.6375    0.0000 N   0  0  0  0  0  0  0  0  0  0  0  0
    9.5375   -7.7750    0.0000 C   0  0  0  0  0  0  0  0  0  0  0  0
    4.5667   -6.7792    0.0000 C   0  0  0  0  0  0  0  0  0  0  0  0
    5.8917   -7.1292    0.0000 H   0  0  0  0  0  0  0  0  0  0  0  0
  2  3  1  0
  3  1  1  0
  4  1  1  0
  5 10  1  0
  6 23  1  0
  7  2  1  0
  1  8  1  1
  9  5  2  0
 10 15  1  0
 11 15  1  0
 12  6  1  0
 13  6  2  0
 14 13  1  0
 15 19  1  0
 16 12  1  0
 17  4  1  0
 18  7  2  0
 19  8  1  0
 20  9  1  0
 21  7  1  0
 22  9  1  0
 23 26  1  0
 24 17  1  0
 25  3  2  0
 26 18  1  0
 27  1  1  0
 28 20  1  0
 29 21  1  0
 30 19  2  0
 31 20  2  0
 32 21  2  0
 33 22  2  0
 34 22  1  0
 35 12  1  0
 36 27  1  0
  4 37  1  6
  4  2  1  0
 24 18  1  0
  5 11  1  0
 16 14  2  0
M  END

> <chembl_id>
CHEMBL474579

> <chembl_pref_name>
CEFOTETAN

$$$$

     RDKit          2D

 33 35  0  0  1  0  0  0  0  0999 V2000
    2.7708   -5.8958    0.0000 N   0  0  0  0  0  0  0  0  0  0  0  0
    2.7667   -5.1875    0.0000 C   0  0  0  0  0  0  0  0  0  0  0  0
    2.0625   -5.9000    0.0000 C   0  0  0  0  0  0  0  0  0  0  0  0
    2.0625   -5.1875    0.0000 C   0  0  0  0  0  0  0  0  0  0  0  0
    3.4458   -6.1125    0.0000 C   0  0  0  0  0  0  0  0  0  0  0  0
    3.4417   -4.9667    0.0000 S   0  0  0  0  0  0  0  0  0  0  0  0
    3.8625   -5.5375    0.0000 C   0  0  0  0  0  0  0  0  0  0  0  0
    3.4417   -6.8167    0.0000 C   0  0  0  0  0  0  0  0  0  0  0  0
    1.4417   -4.8292    0.0000 N   0  0  0  0  0  0  0  0  0  0  0  0
    0.8250   -5.1875    0.0000 C   0  0  0  0  0  0  0  0  0  0  0  0
    4.0500   -7.1792    0.0000 O   0  0  0  0  0  0  0  0  0  0  0  0
    5.2750   -7.1917    0.0000 O   0  0  0  0  0  0  0  0  0  0  0  0
    5.8917   -6.8458    0.0000 C   0  0  0  0  0  0  0  0  0  0  0  0
    0.2125   -4.8333    0.0000 C   0  0  0  0  0  0  0  0  0  0  0  0
    4.6667   -6.8333    0.0000 C   0  0  0  0  0  0  0  0  0  0  0  0
    1.5583   -6.4000    0.0000 O   0  0  0  0  0  0  0  0  0  0  0  0
    2.8208   -7.1667    0.0000 O   0  0  0  0  0  0  0  0  0  0  0  0
    0.8250   -5.8958    0.0000 O   0  0  0  0  0  0  0  0  0  0  0  0
    5.9000   -6.1375    0.0000 O   0  0  0  0  0  0  0  0  0  0  0  0
   -0.4000   -5.1875    0.0000 C   0  0  0  0  0  0  0  0  0  0  0  0
    0.2125   -4.1250    0.0000 N   0  0  0  0  0  0  0  0  0  0  0  0
    6.5042   -7.2083    0.0000 O   0  0  0  0  0  0  0  0  0  0  0  0
    4.4750   -5.8917    0.0000 C   0  0  0  0  0  0  0  0  0  0  0  0
    4.4750   -5.1792    0.0000 C   0  0  0  0  0  0  0  0  0  0  0  0
    4.6750   -6.1250    0.0000 C   0  0  0  0  0  0  0  0  0  0  0  0
   -0.4000   -5.8875    0.0000 C   0  0  0  0  0  0  0  0  0  0  0  0
   -1.0125   -4.8292    0.0000 C   0  0  0  0  0  0  0  0  0  0  0  0
    7.1208   -6.8583    0.0000 C   0  0  0  0  0  0  0  0  0  0  0  0
    7.7292   -7.2208    0.0000 C   0  0  0  0  0  0  0  0  0  0  0  0
   -1.6250   -5.1833    0.0000 C   0  0  0  0  0  0  0  0  0  0  0  0
   -1.0083   -6.2458    0.0000 C   0  0  0  0  0  0  0  0  0  0  0  0
   -1.6250   -5.8917    0.0000 C   0  0  0  0  0  0  0  0  0  0  0  0
    2.7625   -4.4792    0.0000 H   0  0  0  0  0  0  0  0  0  0  0  0
  2  1  1  0
  3  1  1  0
  4  3  1  0
  5  1  1  0
  6  2  1  0
  7  5  1  0
  5  8  1  6
  4  9  1  1
 10  9  1  0
 11  8  1  0
 12 15  1  0
 13 12  1  0
 14 10  1  0
 15 11  1  0
 16  3  2  0
 17  8  2  0
 18 10  2  0
 19 13  2  0
 20 14  1  0
 14 21  1  1
 22 13  1  0
 23  7  1  0
 24  7  1  0
 25 15  1  0
 26 20  1  0
 27 20  2  0
 28 22  1  0
 29 28  1  0
 30 27  1  0
 31 26  2  0
 32 31  1  0
  2 33  1  6
  6  7  1  0
  4  2  1  0
 32 30  2  0
M  END

> <chembl_id>
CHEMBL1583

> <chembl_pref_name>
BACAMPICILLIN

$$$$

     RDKit          2D

 34 37  0  0  1  0  0  0  0  0999 V2000
   22.2037   -6.8090    0.0000 C   0  0  0  0  0  0  0  0  0  0  0  0
   22.1991   -5.9349    0.0000 C   0  0  0  0  0  0  0  0  0  0  0  0
   22.9179   -7.2154    0.0000 C   0  0  0  0  0  0  0  0  0  0  0  0
   21.5215   -7.2154    0.0000 C   0  0  0  0  0  0  0  0  0  0  0  0
   21.5181   -5.5493    0.0000 C   0  0  0  0  0  0  0  0  0  0  0  0
   22.9225   -5.5230    0.0000 C   0  0  0  0  0  0  0  0  0  0  0  0
   22.1991   -5.1039    0.0000 O   0  0  0  0  0  0  0  0  0  0  0  0
   23.6160   -6.8367    0.0000 C   0  0  0  0  0  0  0  0  0  0  0  0
   22.9179   -8.0464    0.0000 N   0  0  0  0  0  0  0  0  0  0  0  0
   20.7916   -6.8090    0.0000 C   0  0  0  0  0  0  0  0  0  0  0  0
   21.5215   -8.0463    0.0000 O   0  0  0  0  0  0  0  0  0  0  0  0
   20.7946   -5.9599    0.0000 C   0  0  0  0  0  0  0  0  0  0  0  0
   21.5181   -4.7183    0.0000 O   0  0  0  0  0  0  0  0  0  0  0  0
   23.6168   -5.9380    0.0000 C   0  0  0  0  0  0  0  0  0  0  0  0
   22.9225   -4.6920    0.0000 O   0  0  0  0  0  0  0  0  0  0  0  0
   24.3340   -7.2522    0.0000 O   0  0  0  0  0  0  0  0  0  0  0  0
   22.1922   -8.4639    0.0000 C   0  0  0  0  0  0  0  0  0  0  0  0
   23.6324   -8.4600    0.0000 C   0  0  0  0  0  0  0  0  0  0  0  0
   20.1022   -7.1878    0.0000 C   0  0  0  0  0  0  0  0  0  0  0  0
   20.1081   -5.5493    0.0000 C   0  0  0  0  0  0  0  0  0  0  0  0
   24.3390   -5.5225    0.0000 C   0  0  0  0  0  0  0  0  0  0  0  0
   19.4091   -6.7771    0.0000 C   0  0  0  0  0  0  0  0  0  0  0  0
   20.1022   -8.0186    0.0000 C   0  0  0  0  0  0  0  0  0  0  0  0
   19.4091   -5.9599    0.0000 C   0  0  0  0  0  0  0  0  0  0  0  0
   20.1081   -4.7183    0.0000 O   0  0  0  0  0  0  0  0  0  0  0  0
   25.0596   -5.9395    0.0000 N   0  0  0  0  0  0  0  0  0  0  0  0
   24.3390   -4.6946    0.0000 O   0  0  0  0  0  0  0  0  0  0  0  0
   18.6971   -7.1878    0.0000 C   0  0  0  0  0  0  0  0  0  0  0  0
   18.6936   -5.5493    0.0000 C   0  0  0  0  0  0  0  0  0  0  0  0
   17.9961   -6.8090    0.0000 C   0  0  0  0  0  0  0  0  0  0  0  0
   17.9961   -5.9599    0.0000 C   0  0  0  0  0  0  0  0  0  0  0  0
   18.6936   -4.7183    0.0000 O   0  0  0  0  0  0  0  0  0  0  0  0
   22.2037   -7.6398    0.0000 H   0  0  0  0  0  0  0  0  0  0  0  0
   20.7916   -7.6399    0.0000 H   0  0  0  0  0  0  0  0  0  0  0  0
  1  2  1  0
  1  3  1  0
  1  4  1  0
  2  5  1  0
  2  6  1  0
  2  7  1  1
  3  8  1  0
  3  9  1  1
  4 10  1  0
  4 11  1  1
  5 12  2  0
  5 13  1  0
  6 14  1  0
  6 15  2  0
  8 16  1  0
  9 17  1  0
  9 18  1  0
 10 19  1  0
 12 20  1  0
 14 21  1  0
 19 22  1  0
 19 23  2  0
 20 24  1  0
 20 25  2  0
 21 26  1  0
 21 27  2  0
 22 28  1  0
 24 29  1  0
 28 30  2  0
 29 31  2  0
 29 32  1  0
  8 14  2  0
 10 12  1  0
 22 24  2  0
 30 31  1  0
  1 33  1  1
 10 34  1  1
M  END

> <chembl_id>
CHEMBL249837

> <chembl_pref_name>
METHACYCLINE

$$$$

     RDKit          2D

 52 54  0  0  1  0  0  0  0  0999 V2000
   -1.2948    5.6332    0.0000 C   0  0  0  0  0  0  0  0  0  0  0  0
    2.6351    2.1015    0.0000 C   0  0  0  0  0  0  0  0  0  0  0  0
    3.2860   -0.7500    0.0000 C   0  0  0  0  0  0  0  0  0  0  0  0
    0.0000   -3.3705    0.0000 C   0  0  0  0  0  0  0  0  0  0  0  0
    3.2860    0.7500    0.0000 C   0  0  0  0  0  0  0  0  0  0  0  0
   -2.5944    4.8840    0.0000 C   0  0  0  0  0  0  0  0  0  0  0  0
    0.0000    3.3705    0.0000 C   0  0  0  0  0  0  0  0  0  0  0  0
    1.4624    3.0367    0.0000 C   0  0  0  0  0  0  0  0  0  0  0  0
   -2.6351   -2.1015    0.0000 C   0  0  0  0  0  0  0  0  0  0  0  0
    2.6351   -2.1015    0.0000 O   0  0  0  0  0  0  0  0  0  0  0  0
   -1.4624   -3.0367    0.0000 C   0  0  0  0  0  0  0  0  0  0  0  0
   -3.2860   -0.7500    0.0000 C   0  0  0  0  0  0  0  0  0  0  0  0
    0.0030    4.8795    0.0000 O   0  0  0  0  0  0  0  0  0  0  0  0
    4.5283    6.9502    0.0000 C   0  0  0  0  0  0  0  0  0  0  0  0
   -3.8930    5.6347    0.0000 C   0  0  0  0  0  0  0  0  0  0  0  0
   -1.4624    3.0367    0.0000 C   0  0  0  0  0  0  0  0  0  0  0  0
    3.5874    4.5284    0.0000 C   0  0  0  0  0  0  0  0  0  0  0  0
    4.7569    5.4677    0.0000 C   0  0  0  0  0  0  0  0  0  0  0  0
   -1.2941    7.1333    0.0000 O   0  0  0  0  0  0  0  0  0  0  0  0
    2.1892    5.0718    0.0000 O   0  0  0  0  0  0  0  0  0  0  0  0
    1.4624   -3.0367    0.0000 C   0  0  0  0  0  0  0  0  0  0  0  0
    3.1302    7.4934    0.0000 C   0  0  0  0  0  0  0  0  0  0  0  0
    3.8131    3.0446    0.0000 O   0  0  0  0  0  0  0  0  0  0  0  0
    1.9606    6.5542    0.0000 C   0  0  0  0  0  0  0  0  0  0  0  0
   -3.2860    0.7500    0.0000 C   0  0  0  0  0  0  0  0  0  0  0  0
   -2.6352    2.1014    0.0000 C   0  0  0  0  0  0  0  0  0  0  0  0
   -3.8922    7.1347    0.0000 C   0  0  0  0  0  0  0  0  0  0  0  0
   -5.1947    4.8877    0.0000 N   0  0  0  0  0  0  0  0  0  0  0  0
    4.4559   -1.0170    0.0000 O   0  0  0  0  0  0  0  0  0  0  0  0
   -2.5927    7.8840    0.0000 C   0  0  0  0  0  0  0  0  0  0  0  0
   -4.4559   -1.0170    0.0000 O   0  0  0  0  0  0  0  0  0  0  0  0
    1.0687   -3.9163    0.0000 O   0  0  0  0  0  0  0  0  0  0  0  0
   -2.5951    3.6840    0.0000 O   0  0  0  0  0  0  0  0  0  0  0  0
   -1.9830   -4.1179    0.0000 O   0  0  0  0  0  0  0  0  0  0  0  0
    4.2668    8.4073    0.0000 O   0  0  0  0  0  0  0  0  0  0  0  0
   -0.5786    4.1974    0.0000 O   0  0  0  0  0  0  0  0  0  0  0  0
    2.9473    8.6794    0.0000 O   0  0  0  0  0  0  0  0  0  0  0  0
   -1.0687   -3.9163    0.0000 C   0  0  0  0  0  0  0  0  0  0  0  0
    4.4559    1.0170    0.0000 C   0  0  0  0  0  0  0  0  0  0  0  0
    1.9830    4.1179    0.0000 C   0  0  0  0  0  0  0  0  0  0  0  0
   -3.5733   -2.8497    0.0000 C   0  0  0  0  0  0  0  0  0  0  0  0
    5.6359    6.4883    0.0000 C   0  0  0  0  0  0  0  0  0  0  0  0
   -2.6621    3.0636    0.0000 C   0  0  0  0  0  0  0  0  0  0  0  0
    2.1198   -4.3949    0.0000 C   0  0  0  0  0  0  0  0  0  0  0  0
    0.8421    6.9889    0.0000 C   0  0  0  0  0  0  0  0  0  0  0  0
   -4.4559    1.0170    0.0000 C   0  0  0  0  0  0  0  0  0  0  0  0
   -6.2328    5.4898    0.0000 C   0  0  0  0  0  0  0  0  0  0  0  0
   -5.1975    3.6877    0.0000 C   0  0  0  0  0  0  0  0  0  0  0  0
   -2.5920    9.0840    0.0000 C   0  0  0  0  0  0  0  0  0  0  0  0
    0.6181    4.1083    0.0000 C   0  0  0  0  0  0  0  0  0  0  0  0
    5.1640    9.2042    0.0000 C   0  0  0  0  0  0  0  0  0  0  0  0
    3.3166   -4.4830    0.0000 C   0  0  0  0  0  0  0  0  0  0  0  0
  2  8  1  0
  3  5  1  0
  4 11  1  0
  5  2  1  0
  6  1  1  0
  7 13  1  6
  8  7  1  0
  9 12  1  0
 10  3  1  0
 11  9  1  0
 12 25  1  0
  1 13  1  1
 14 18  1  0
 15  6  1  0
 16  7  1  0
 17 23  1  6
 18 17  1  0
 19  1  1  0
 20 17  1  0
 21 10  1  0
 22 24  1  0
  2 23  1  6
 24 20  1  0
 25 26  1  0
 26 16  1  0
 27 30  1  0
 15 28  1  1
 29  3  2  0
 30 19  1  0
 31 12  2  0
  4 32  1  1
  6 33  1  6
 11 34  1  6
 14 35  1  0
 16 36  1  0
 22 37  1  6
 38  4  1  0
  5 39  1  1
  8 40  1  1
  9 41  1  1
 14 42  1  1
 16 43  1  6
 21 44  1  6
 24 45  1  1
 25 46  1  6
 47 28  1  0
 48 28  1  0
 30 49  1  1
 50 36  1  0
 51 35  1  0
 52 44  1  0
 27 15  1  0
 21  4  1  0
 22 14  1  0
M  END

> <chembl_id>
CHEMBL1741

> <chembl_pref_name>
CLARITHROMYCIN

$$$$

     RDKit          2D

 33 36  0  0  0  0  0  0  0  0999 V2000
   -0.4577  -26.9666    0.0000 N   0  0  0  0  0  0  0  0  0  0  0  0
   -1.2859  -26.9832    0.0000 C   0  0  0  0  0  0  0  0  0  0  0  0
   -1.2984  -26.1551    0.0000 C   0  0  0  0  0  0  0  0  0  0  0  0
   -0.4702  -26.1384    0.0000 C   0  0  0  0  0  0  0  0  0  0  0  0
    0.2664  -27.3744    0.0000 C   0  0  0  0  0  0  0  0  0  0  0  0
    0.9738  -26.9458    0.0000 C   0  0  0  0  0  0  0  0  0  0  0  0
   -4.0700  -25.4642    0.0000 C   0  0  0  0  0  0  0  0  0  0  0  0
   -3.2751  -25.2354    0.0000 C   0  0  0  0  0  0  0  0  0  0  0  0
   -4.3529  -26.2383    0.0000 N   0  0  0  0  0  0  0  0  0  0  0  0
   -1.8935  -25.5808    0.0000 N   0  0  0  0  0  0  0  0  0  0  0  0
   -2.6842  -25.8097    0.0000 C   0  0  0  0  0  0  0  0  0  0  0  0
    0.2414  -25.7181    0.0000 S   0  0  0  0  0  0  0  0  0  0  0  0
   -5.1769  -26.2092    0.0000 C   0  0  0  0  0  0  0  0  0  0  0  0
    2.4012  -26.9208    0.0000 N   0  0  0  0  0  0  0  0  0  0  0  0
    0.2829  -28.1983    0.0000 C   0  0  0  0  0  0  0  0  0  0  0  0
   -4.7191  -24.9566    0.0000 C   0  0  0  0  0  0  0  0  0  0  0  0
   -5.4016  -25.4143    0.0000 S   0  0  0  0  0  0  0  0  0  0  0  0
    1.6979  -27.3453    0.0000 C   0  0  0  0  0  0  0  0  0  0  0  0
    0.9613  -26.1176    0.0000 C   0  0  0  0  0  0  0  0  0  0  0  0
   -3.0754  -24.4364    0.0000 N   0  0  0  0  0  0  0  0  0  0  0  0
   -1.8560  -27.5741    0.0000 O   0  0  0  0  0  0  0  0  0  0  0  0
   -2.8839  -26.6087    0.0000 O   0  0  0  0  0  0  0  0  0  0  0  0
    1.0030  -28.5978    0.0000 O   0  0  0  0  0  0  0  0  0  0  0  0
   -0.4245  -28.6228    0.0000 O   0  0  0  0  0  0  0  0  0  0  0  0
   -5.6847  -26.8584    0.0000 N   0  0  0  0  0  0  0  0  0  0  0  0
   -2.2847  -24.2117    0.0000 O   0  0  0  0  0  0  0  0  0  0  0  0
    2.6135  -27.7114    0.0000 C   0  0  0  0  0  0  0  0  0  0  0  0
    2.4719  -26.0968    0.0000 C   0  0  0  0  0  0  0  0  0  0  0  0
    3.1586  -27.2370    0.0000 C   0  0  0  0  0  0  0  0  0  0  0  0
   -2.0849  -23.4085    0.0000 C   0  0  0  0  0  0  0  0  0  0  0  0
    3.2751  -25.9096    0.0000 C   0  0  0  0  0  0  0  0  0  0  0  0
    3.6996  -26.6170    0.0000 C   0  0  0  0  0  0  0  0  0  0  0  0
   -0.4786  -25.3144    0.0000 H   0  0  0  0  0  0  0  0  0  0  0  0
  2  1  1  0
  3  4  1  0
  4  1  1  0
  5  1  1  0
  6  5  2  0
  7  8  1  0
  8 11  1  0
  9  7  1  0
  3 10  1  1
 11 10  1  0
 12  4  1  0
 13  9  2  0
 14 18  1  0
 15  5  1  0
 16  7  2  0
 17 16  1  0
 18  6  1  0
 19 12  1  0
 20  8  2  0
 21  2  2  0
 22 11  2  0
 23 15  1  0
 24 15  2  0
 25 13  1  0
 26 20  1  0
 27 14  1  0
 28 14  1  0
 29 14  1  0
 30 26  1  0
 31 28  1  0
 32 29  1  0
  4 33  1  6
  2  3  1  0
 19  6  1  0
 31 32  1  0
 13 17  1  0
M  CHG  2  14   1  23  -1
M  END

> <chembl_id>
CHEMBL186

> <chembl_pref_name>
CEFEPIME

$$$$

     RDKit          2D

 27 29  0  0  1  0  0  0  0  0999 V2000
    7.4045   -7.3799    0.0000 N   0  0  0  0  0  0  0  0  0  0  0  0
    7.4045   -6.5549    0.0000 C   0  0  0  0  0  0  0  0  0  0  0  0
    6.5631   -7.3799    0.0000 C   0  0  0  0  0  0  0  0  0  0  0  0
    6.5631   -6.5549    0.0000 C   0  0  0  0  0  0  0  0  0  0  0  0
    8.2254   -7.6508    0.0000 C   0  0  0  0  0  0  0  0  0  0  0  0
    8.2254   -6.2963    0.0000 S   0  0  0  0  0  0  0  0  0  0  0  0
    8.7097   -6.9694    0.0000 C   0  0  0  0  0  0  0  0  0  0  0  0
    5.7668   -6.7765    0.0000 N   0  0  0  0  0  0  0  0  0  0  0  0
    5.1224   -6.2717    0.0000 C   0  0  0  0  0  0  0  0  0  0  0  0
    8.5209   -8.4593    0.0000 C   0  0  0  0  0  0  0  0  0  0  0  0
    4.3138   -6.2717    0.0000 C   0  0  0  0  0  0  0  0  0  0  0  0
    5.9762   -7.9832    0.0000 O   0  0  0  0  0  0  0  0  0  0  0  0
    3.9198   -5.5821    0.0000 N   0  0  0  0  0  0  0  0  0  0  0  0
    5.5287   -5.5944    0.0000 O   0  0  0  0  0  0  0  0  0  0  0  0
    9.3500   -8.6235    0.0000 O   0  0  0  0  0  0  0  0  0  0  0  0
    3.8952   -6.9982    0.0000 C   0  0  0  0  0  0  0  0  0  0  0  0
    7.9463   -9.1119    0.0000 O   0  0  0  0  0  0  0  0  0  0  0  0
    9.2228   -6.2717    0.0000 C   0  0  0  0  0  0  0  0  0  0  0  0
    9.3747   -7.4907    0.0000 C   0  0  0  0  0  0  0  0  0  0  0  0
    3.1441   -5.5821    0.0000 C   0  0  0  0  0  0  0  0  0  0  0  0
    4.3015   -7.6754    0.0000 C   0  0  0  0  0  0  0  0  0  0  0  0
    3.0948   -6.9982    0.0000 C   0  0  0  0  0  0  0  0  0  0  0  0
    3.8952   -8.3608    0.0000 C   0  0  0  0  0  0  0  0  0  0  0  0
    2.6843   -7.6754    0.0000 C   0  0  0  0  0  0  0  0  0  0  0  0
    3.0948   -8.3608    0.0000 C   0  0  0  0  0  0  0  0  0  0  0  0
    7.4045   -5.7053    0.0000 H   0  0  0  0  0  0  0  0  0  0  0  0
    6.5631   -5.7053    0.0000 H   0  0  0  0  0  0  0  0  0  0  0  0
  2  1  1  0
  3  1  1  0
  4  3  1  0
  5  1  1  0
  6  2  1  0
  7  5  1  0
  4  8  1  1
  9  8  1  0
  5 10  1  6
 11  9  1  0
 12  3  2  0
 13 11  1  0
 14  9  2  0
 15 10  2  0
 11 16  1  1
 17 10  1  0
 18  7  1  0
 19  7  1  0
 20 13  2  0
 21 16  1  0
 22 16  2  0
 23 21  2  0
 24 22  1  0
 25 24  2  0
  2 26  1  6
  4 27  1  6
  7  6  1  0
  4  2  1  0
 25 23  1  0
M  END

> <chembl_id>
CHEMBL1908324

> <chembl_pref_name>
METAMPICILLIN

$$$$

     RDKit          2D

 18 19  0  0  0  0  0  0  0  0999 V2000
    2.5988   -1.5004    0.0000 S   0  0  0  0  0  0  0  0  0  0  0  0
    3.8995   -3.7516    0.0000 C   0  0  0  0  0  0  0  0  0  0  0  0
    2.5997   -3.0012    0.0000 N   0  0  0  0  0  0  0  0  0  0  0  0
    4.0404   -5.2322    0.0000 C   0  0  0  0  0  0  0  0  0  0  0  0
    6.2556   -4.2405    0.0000 N   0  0  0  0  0  0  0  0  0  0  0  0
    5.2496   -3.1278    0.0000 O   0  0  0  0  0  0  0  0  0  0  0  0
    5.5083   -5.5410    0.0000 C   0  0  0  0  0  0  0  0  0  0  0  0
    1.2990   -0.7500    0.0000 C   0  0  0  0  0  0  0  0  0  0  0  0
    3.6378   -0.9001    0.0000 O   0  0  0  0  0  0  0  0  0  0  0  0
    3.6383   -2.0999    0.0000 O   0  0  0  0  0  0  0  0  0  0  0  0
    1.2990    0.7500    0.0000 C   0  0  0  0  0  0  0  0  0  0  0  0
    0.0000   -1.5000    0.0000 C   0  0  0  0  0  0  0  0  0  0  0  0
    3.1455   -6.0317    0.0000 C   0  0  0  0  0  0  0  0  0  0  0  0
   -1.2990    0.7500    0.0000 C   0  0  0  0  0  0  0  0  0  0  0  0
   -2.3383    1.3500    0.0000 N   0  0  0  0  0  0  0  0  0  0  0  0
    0.0000    1.5000    0.0000 C   0  0  0  0  0  0  0  0  0  0  0  0
   -1.2990   -0.7500    0.0000 C   0  0  0  0  0  0  0  0  0  0  0  0
    5.9986   -6.6363    0.0000 C   0  0  0  0  0  0  0  0  0  0  0  0
  2  3  1  0
  3  1  1  0
  4  2  2  0
  5  6  1  0
  6  2  1  0
  7  4  1  0
  8  1  1  0
  9  1  2  0
 10  1  2  0
 11  8  2  0
 12  8  1  0
 13  4  1  0
 14 17  1  0
 15 14  1  0
 16 11  1  0
 17 12  2  0
 18  7  1  0
 16 14  2  0
  5  7  2  0
M  END

> <chembl_id>
CHEMBL453

> <chembl_pref_name>
SULFISOXAZOLE

$$$$

     RDKit          2D

 31 33  0  0  1  0  0  0  0  0999 V2000
    0.5160    1.5873    0.0000 C   0  0  0  0  0  0  0  0  0  0  0  0
    2.4115    0.0824    0.0000 C   0  0  0  0  0  0  0  0  0  0  0  0
    1.1323   -0.6271    0.0000 C   0  0  0  0  0  0  0  0  0  0  0  0
    0.1182    0.8600    0.0000 C   0  0  0  0  0  0  0  0  0  0  0  0
    1.5623    0.0824    0.0000 C   0  0  0  0  0  0  0  0  0  0  0  0
   -0.6951    0.8600    0.0000 C   0  0  0  0  0  0  0  0  0  0  0  0
    0.1182    2.2646    0.0000 O   0  0  0  0  0  0  0  0  0  0  0  0
    1.8740    1.3938    0.0000 O   0  0  0  0  0  0  0  0  0  0  0  0
   -1.1036    1.5873    0.0000 C   0  0  0  0  0  0  0  0  0  0  0  0
   -0.0752   -0.9675    0.0000 O   0  0  0  0  0  0  0  0  0  0  0  0
   -1.1788   -1.4226    0.0000 C   0  0  0  0  0  0  0  0  0  0  0  0
   -0.6772    2.2646    0.0000 C   0  0  0  0  0  0  0  0  0  0  0  0
    2.8093   -0.6271    0.0000 C   0  0  0  0  0  0  0  0  0  0  0  0
    1.5408   -1.3222    0.0000 C   0  0  0  0  0  0  0  0  0  0  0  0
   -1.5766   -0.7453    0.0000 O   0  0  0  0  0  0  0  0  0  0  0  0
    2.3649   -1.3222    0.0000 C   0  0  0  0  0  0  0  0  0  0  0  0
   -1.5766   -2.1499    0.0000 C   0  0  0  0  0  0  0  0  0  0  0  0
   -1.1036    0.1576    0.0000 N   0  0  0  0  0  0  0  0  0  0  0  0
    0.2939    0.1361    0.0000 O   0  0  0  0  0  0  0  0  0  0  0  0
    1.1323    0.6736    0.0000 O   0  0  0  0  0  0  0  0  0  0  0  0
   -2.4043   -2.1499    0.0000 C   0  0  0  0  0  0  0  0  0  0  0  0
    3.6692   -0.6342    0.0000 N   0  0  0  0  0  0  0  0  0  0  0  0
    1.0786   -2.0460    0.0000 N   0  0  0  0  0  0  0  0  0  0  0  0
   -1.9027    1.6017    0.0000 O   0  0  0  0  0  0  0  0  0  0  0  0
   -2.3757   -0.7453    0.0000 C   0  0  0  0  0  0  0  0  0  0  0  0
   -1.1358   -2.9060    0.0000 N   0  0  0  0  0  0  0  0  0  0  0  0
   -2.8020   -1.4226    0.0000 C   0  0  0  0  0  0  0  0  0  0  0  0
   -1.0606    2.9561    0.0000 C   0  0  0  0  0  0  0  0  0  0  0  0
   -3.6298   -0.0251    0.0000 N   0  0  0  0  0  0  0  0  0  0  0  0
   -1.9313    2.9633    0.0000 O   0  0  0  0  0  0  0  0  0  0  0  0
   -2.7483   -0.0430    0.0000 C   0  0  0  0  0  0  0  0  0  0  0  0
  2  8  1  1
  3  5  1  0
  4  1  1  0
  5  2  1  0
  6  4  1  0
  7  1  1  0
  1  8  1  6
  9 12  1  0
  3 10  1  1
 11 10  1  6
 12  7  1  0
 13  2  1  0
 14 16  1  0
 15 11  1  0
 16 13  1  0
 17 11  1  0
  6 18  1  1
  4 19  1  6
  5 20  1  6
 21 17  1  0
 13 22  1  6
 14 23  1  6
  9 24  1  6
 25 15  1  0
 17 26  1  6
 27 21  1  0
 12 28  1  1
 29 31  1  0
 30 28  1  0
 25 31  1  1
  6  9  1  0
  3 14  1  0
 25 27  1  0
M  END

> <chembl_id>
CHEMBL560976

> <chembl_pref_name>
DIBEKACIN

$$$$

     RDKit          2D

 22 24  0  0  0  0  0  0  0  0999 V2000
    2.3383   -1.3500    0.0000 N   0  0  0  0  0  0  0  0  0  0  0  0
    1.2990   -0.7500    0.0000 C   0  0  0  0  0  0  0  0  0  0  0  0
    1.2990    0.7500    0.0000 C   0  0  0  0  0  0  0  0  0  0  0  0
    0.0000    1.5000    0.0000 C   0  0  0  0  0  0  0  0  0  0  0  0
   -1.2990    0.7500    0.0000 C   0  0  0  0  0  0  0  0  0  0  0  0
   -1.2990   -0.7500    0.0000 C   0  0  0  0  0  0  0  0  0  0  0  0
    0.0000   -1.5000    0.0000 C   0  0  0  0  0  0  0  0  0  0  0  0
   -2.5988    1.5004    0.0000 S   0  0  0  0  0  0  0  0  0  0  0  0
   -3.6378    0.9001    0.0000 O   0  0  0  0  0  0  0  0  0  0  0  0
   -3.6383    2.0999    0.0000 O   0  0  0  0  0  0  0  0  0  0  0  0
   -2.5998    3.0012    0.0000 N   0  0  0  0  0  0  0  0  0  0  0  0
   -3.8995    3.7516    0.0000 C   0  0  0  0  0  0  0  0  0  0  0  0
   -5.2496    3.1278    0.0000 C   0  0  0  0  0  0  0  0  0  0  0  0
   -6.2556    4.2405    0.0000 C   0  0  0  0  0  0  0  0  0  0  0  0
   -5.5083    5.5410    0.0000 N   0  0  0  0  0  0  0  0  0  0  0  0
   -4.0404    5.2322    0.0000 N   0  0  0  0  0  0  0  0  0  0  0  0
   -2.9213    6.2320    0.0000 C   0  0  0  0  0  0  0  0  0  0  0  0
   -1.4690    5.8779    0.0000 C   0  0  0  0  0  0  0  0  0  0  0  0
   -0.4333    6.9630    0.0000 C   0  0  0  0  0  0  0  0  0  0  0  0
   -0.8551    8.4024    0.0000 C   0  0  0  0  0  0  0  0  0  0  0  0
   -2.3127    8.7569    0.0000 C   0  0  0  0  0  0  0  0  0  0  0  0
   -3.3484    7.6719    0.0000 C   0  0  0  0  0  0  0  0  0  0  0  0
  1  2  1  0
  2  3  2  0
  3  4  1  0
  4  5  2  0
  5  6  1  0
  6  7  2  0
  7  2  1  0
  5  8  1  0
  8  9  2  0
  8 10  2  0
  8 11  1  0
 11 12  1  0
 12 13  2  0
 13 14  1  0
 14 15  2  0
 15 16  1  0
 16 12  1  0
 16 17  1  0
 17 18  2  0
 18 19  1  0
 19 20  2  0
 20 21  1  0
 21 22  2  0
 22 17  1  0
M  END

> <chembl_id>
CHEMBL1109

> <chembl_pref_name>
SULFAPHENAZOLE

$$$$

     RDKit          2D

 14 15  0  0  0  0  0  0  0  0999 V2000
   11.7629   -2.0863    0.0000 C   0  0  0  0  0  0  0  0  0  0  0  0
   11.7617   -2.9132    0.0000 C   0  0  0  0  0  0  0  0  0  0  0  0
   12.4761   -3.3258    0.0000 C   0  0  0  0  0  0  0  0  0  0  0  0
   12.4743   -1.6737    0.0000 C   0  0  0  0  0  0  0  0  0  0  0  0
   13.1893   -2.0827    0.0000 C   0  0  0  0  0  0  0  0  0  0  0  0
   13.1901   -2.9090    0.0000 C   0  0  0  0  0  0  0  0  0  0  0  0
   13.9049   -3.3198    0.0000 N   0  0  0  0  0  0  0  0  0  0  0  0
   14.6196   -2.9053    0.0000 C   0  0  0  0  0  0  0  0  0  0  0  0
   14.6149   -2.0757    0.0000 C   0  0  0  0  0  0  0  0  0  0  0  0
   13.8993   -1.6688    0.0000 C   0  0  0  0  0  0  0  0  0  0  0  0
   12.4780   -4.1504    0.0000 O   0  0  0  0  0  0  0  0  0  0  0  0
   12.4680   -0.8475    0.0000 N   0  0  0  0  0  0  0  0  0  0  0  0
   11.7528   -0.4373    0.0000 O   0  0  0  0  0  0  0  0  0  0  0  0
   13.1809   -0.4331    0.0000 O   0  0  0  0  0  0  0  0  0  0  0  0
  1  2  2  0
  2  3  1  0
  3  6  2  0
  5  4  2  0
  4  1  1  0
  5  6  1  0
  6  7  1  0
  7  8  2  0
  8  9  1  0
  9 10  2  0
 10  5  1  0
  3 11  1  0
 12 13  2  0
 12 14  1  0
  4 12  1  0
M  CHG  2  12   1  14  -1
M  END

> <chembl_id>
CHEMBL1454910

> <chembl_pref_name>
NITROXOLINE

$$$$

     RDKit          2D

 21 22  0  0  0  0  0  0  0  0999 V2000
    2.6292   -3.4292    0.0000 S   0  0  0  0  0  0  0  0  0  0  0  0
    2.0250   -3.7667    0.0000 N   0  0  0  0  0  0  0  0  0  0  0  0
    1.4042   -4.8292    0.0000 N   0  0  0  0  0  0  0  0  0  0  0  0
    2.0250   -4.4750    0.0000 C   0  0  0  0  0  0  0  0  0  0  0  0
    2.0250   -5.9000    0.0000 N   0  0  0  0  0  0  0  0  0  0  0  0
    1.4042   -5.5417    0.0000 C   0  0  0  0  0  0  0  0  0  0  0  0
    2.6292   -5.5417    0.0000 C   0  0  0  0  0  0  0  0  0  0  0  0
    2.6292   -4.8292    0.0000 C   0  0  0  0  0  0  0  0  0  0  0  0
    2.4417   -2.7375    0.0000 C   0  0  0  0  0  0  0  0  0  0  0  0
    3.3042   -3.1792    0.0000 O   0  0  0  0  0  0  0  0  0  0  0  0
    2.9292   -4.0542    0.0000 O   0  0  0  0  0  0  0  0  0  0  0  0
    1.7667   -2.5500    0.0000 C   0  0  0  0  0  0  0  0  0  0  0  0
    2.9542   -2.2375    0.0000 C   0  0  0  0  0  0  0  0  0  0  0  0
    0.7917   -5.9000    0.0000 O   0  0  0  0  0  0  0  0  0  0  0  0
    2.0917   -1.3542    0.0000 C   0  0  0  0  0  0  0  0  0  0  0  0
    3.2417   -5.9000    0.0000 O   0  0  0  0  0  0  0  0  0  0  0  0
    1.9000   -0.6792    0.0000 N   0  0  0  0  0  0  0  0  0  0  0  0
    2.7542   -1.5417    0.0000 C   0  0  0  0  0  0  0  0  0  0  0  0
    1.5875   -1.8625    0.0000 C   0  0  0  0  0  0  0  0  0  0  0  0
    0.7917   -6.6125    0.0000 C   0  0  0  0  0  0  0  0  0  0  0  0
    3.8667   -5.5417    0.0000 C   0  0  0  0  0  0  0  0  0  0  0  0
  2  1  1  0
  3  4  1  0
  4  2  1  0
  5  7  2  0
  6  3  2  0
  7  8  1  0
  8  4  2  0
  9  1  1  0
 10  1  2  0
 11  1  2  0
 12  9  1  0
 13  9  2  0
 14  6  1  0
 15 18  2  0
 16  7  1  0
 17 15  1  0
 18 13  1  0
 19 12  2  0
 20 14  1  0
 21 16  1  0
 19 15  1  0
  6  5  1  0
M  END

> <chembl_id>
CHEMBL62193

> <chembl_pref_name>
SULFADIMETHOXINE

$$$$

     RDKit          2D

 39 42  0  0  1  0  0  0  0  0999 V2000
    4.6265   -2.0996    0.0000 S   0  0  0  0  0  0  0  0  0  0  0  0
    6.8461   -3.3743    0.0000 S   0  0  0  0  0  0  0  0  0  0  0  0
    6.1862   -2.0921    0.0000 S   0  0  0  0  0  0  0  0  0  0  0  0
    1.2972   -4.5440    0.0000 S   0  0  0  0  0  0  0  0  0  0  0  0
    2.4820   -4.0042    0.0000 O   0  0  0  0  0  0  0  0  0  0  0  0
    3.9516   -5.0914    0.0000 O   0  0  0  0  0  0  0  0  0  0  0  0
    5.3464   -5.0914    0.0000 O   0  0  0  0  0  0  0  0  0  0  0  0
    1.5971   -1.1997    0.0000 O   0  0  0  0  0  0  0  0  0  0  0  0
    0.1875   -1.1022    0.0000 O   0  0  0  0  0  0  0  0  0  0  0  0
    4.8515    0.0000    0.0000 O   0  0  0  0  0  0  0  0  0  0  0  0
    4.8365   -1.4097    0.0000 O   0  0  0  0  0  0  0  0  0  0  0  0
    3.9217   -3.4343    0.0000 N   0  0  0  0  0  0  0  0  0  0  0  0
    2.2795   -2.5344    0.0000 N   0  0  0  0  0  0  0  0  0  0  0  0
    0.1875   -2.0695    0.0000 N   0  0  0  0  0  0  0  0  0  0  0  0
    0.2025   -3.6892    0.0000 N   0  0  0  0  0  0  0  0  0  0  0  0
    7.4984   -2.0996    0.0000 N   0  0  0  0  0  0  0  0  0  0  0  0
    0.0000   -5.2339    0.0000 N   0  0  0  0  0  0  0  0  0  0  0  0
    3.9217   -2.5344    0.0000 C   0  0  0  0  0  0  0  0  0  0  0  0
    2.9769   -2.5344    0.0000 C   0  0  0  0  0  0  0  0  0  0  0  0
    2.9769   -3.4343    0.0000 C   0  0  0  0  0  0  0  0  0  0  0  0
    4.6265   -3.8392    0.0000 C   0  0  0  0  0  0  0  0  0  0  0  0
    5.3913   -3.4043    0.0000 C   0  0  0  0  0  0  0  0  0  0  0  0
    5.3913   -2.5344    0.0000 C   0  0  0  0  0  0  0  0  0  0  0  0
    4.6265   -4.6640    0.0000 C   0  0  0  0  0  0  0  0  0  0  0  0
    1.5971   -2.0396    0.0000 C   0  0  0  0  0  0  0  0  0  0  0  0
    6.1262   -3.7792    0.0000 C   0  0  0  0  0  0  0  0  0  0  0  0
    0.9073   -2.4295    0.0000 C   0  0  0  0  0  0  0  0  0  0  0  0
    0.9073   -3.2543    0.0000 C   0  0  0  0  0  0  0  0  0  0  0  0
    6.8461   -2.5494    0.0000 C   0  0  0  0  0  0  0  0  0  0  0  0
    1.5971   -3.7792    0.0000 C   0  0  0  0  0  0  0  0  0  0  0  0
    0.4799   -4.5440    0.0000 C   0  0  0  0  0  0  0  0  0  0  0  0
    6.4411   -1.3047    0.0000 C   0  0  0  0  0  0  0  0  0  0  0  0
    7.2584   -1.3047    0.0000 C   0  0  0  0  0  0  0  0  0  0  0  0
    6.1262   -0.7123    0.0000 C   0  0  0  0  0  0  0  0  0  0  0  0
    7.4984   -0.6599    0.0000 C   0  0  0  0  0  0  0  0  0  0  0  0
    0.9073   -0.6899    0.0000 C   0  0  0  0  0  0  0  0  0  0  0  0
    5.2713   -0.7198    0.0000 C   0  0  0  0  0  0  0  0  0  0  0  0
    3.9217   -1.8821    0.0000 H   0  0  0  0  0  0  0  0  0  0  0  0
    2.9769   -1.8446    0.0000 H   0  0  0  0  0  0  0  0  0  0  0  0
  1 18  1  0
  1 23  1  0
  2 26  1  0
  2 29  1  0
  3 29  1  0
  3 32  1  0
  4 30  1  0
  4 31  1  0
  5 20  2  0
  6 24  1  0
  7 24  2  0
  8 25  2  0
  9 14  1  0
  9 36  1  0
 10 37  1  0
 11 37  2  0
 12 18  1  0
 12 20  1  0
 12 21  1  0
 19 13  1  1
 13 25  1  0
 14 27  2  0
 15 28  1  0
 15 31  2  0
 16 29  2  0
 16 33  1  0
 17 31  1  0
 18 19  1  0
 18 38  1  6
 19 20  1  0
 19 39  1  6
 21 22  2  0
 21 24  1  0
 22 23  1  0
 22 26  1  0
 25 27  1  0
 27 28  1  0
 28 30  2  0
 32 33  2  0
 32 34  1  0
 33 35  1  0
 34 37  1  0
M  END

> <chembl_id>
CHEMBL2303613

> <chembl_pref_name>
CEFODIZIME

$$$$

     RDKit          2D

175177  0  0  0  0  0  0  0  0999 V2000
   39.7198   -6.9290    0.0000 N   0  0  0  0  0  0  0  0  0  0  0  0
   39.0049   -7.3390    0.0000 C   0  0  0  0  0  0  0  0  0  0  0  0
   30.4255   -4.8642    0.0000 C   0  0  0  0  0  0  0  0  0  0  0  0
   31.1454   -4.4592    0.0000 C   0  0  0  0  0  0  0  0  0  0  0  0
   39.7098   -3.6442    0.0000 N   0  0  0  0  0  0  0  0  0  0  0  0
   37.5800   -3.2293    0.0000 N   0  0  0  0  0  0  0  0  0  0  0  0
   29.7155   -4.4592    0.0000 N   0  0  0  0  0  0  0  0  0  0  0  0
   41.1297   -4.4592    0.0000 N   0  0  0  0  0  0  0  0  0  0  0  0
   40.4247   -7.3390    0.0000 C   0  0  0  0  0  0  0  0  0  0  0  0
   41.1347   -6.1041    0.0000 N   0  0  0  0  0  0  0  0  0  0  0  0
   35.4451   -3.6742    0.0000 N   0  0  0  0  0  0  0  0  0  0  0  0
   39.0049   -3.2293    0.0000 C   0  0  0  0  0  0  0  0  0  0  0  0
   41.1347   -3.6343    0.0000 C   0  0  0  0  0  0  0  0  0  0  0  0
   36.8600   -3.6493    0.0000 C   0  0  0  0  0  0  0  0  0  0  0  0
   41.8396   -5.6891    0.0000 C   0  0  0  0  0  0  0  0  0  0  0  0
   35.4351   -4.4892    0.0000 C   0  0  0  0  0  0  0  0  0  0  0  0
   29.0006   -4.8642    0.0000 C   0  0  0  0  0  0  0  0  0  0  0  0
   38.1899   -7.3340    0.0000 C   0  0  0  0  0  0  0  0  0  0  0  0
   38.2949   -3.6493    0.0000 C   0  0  0  0  0  0  0  0  0  0  0  0
   40.4247   -3.2293    0.0000 C   0  0  0  0  0  0  0  0  0  0  0  0
   33.2903   -4.8642    0.0000 C   0  0  0  0  0  0  0  0  0  0  0  0
   31.8654   -4.8642    0.0000 N   0  0  0  0  0  0  0  0  0  0  0  0
   34.0102   -4.4742    0.0000 N   0  0  0  0  0  0  0  0  0  0  0  0
   41.1347   -6.9190    0.0000 C   0  0  0  0  0  0  0  0  0  0  0  0
   36.1551   -3.2443    0.0000 C   0  0  0  0  0  0  0  0  0  0  0  0
   41.8396   -4.8642    0.0000 C   0  0  0  0  0  0  0  0  0  0  0  0
   34.7152   -4.8942    0.0000 C   0  0  0  0  0  0  0  0  0  0  0  0
   27.5607   -4.8642    0.0000 N   0  0  0  0  0  0  0  0  0  0  0  0
   32.5703   -4.4592    0.0000 C   0  0  0  0  0  0  0  0  0  0  0  0
   37.7699   -8.0440    0.0000 N   0  0  0  0  0  0  0  0  0  0  0  0
   28.2806   -4.4542    0.0000 C   0  0  0  0  0  0  0  0  0  0  0  0
   26.8507   -4.4592    0.0000 C   0  0  0  0  0  0  0  0  0  0  0  0
   31.1454   -3.6343    0.0000 O   0  0  0  0  0  0  0  0  0  0  0  0
   40.4247   -8.1640    0.0000 O   0  0  0  0  0  0  0  0  0  0  0  0
   41.8496   -3.2293    0.0000 O   0  0  0  0  0  0  0  0  0  0  0  0
   39.0049   -2.4044    0.0000 O   0  0  0  0  0  0  0  0  0  0  0  0
   36.8750   -4.4742    0.0000 O   0  0  0  0  0  0  0  0  0  0  0  0
   42.5596   -6.1041    0.0000 O   0  0  0  0  0  0  0  0  0  0  0  0
   36.1500   -4.9092    0.0000 O   0  0  0  0  0  0  0  0  0  0  0  0
   38.2949   -4.4742    0.0000 C   0  0  0  0  0  0  0  0  0  0  0  0
   29.0006   -5.6891    0.0000 O   0  0  0  0  0  0  0  0  0  0  0  0
   33.2903   -5.6991    0.0000 O   0  0  0  0  0  0  0  0  0  0  0  0
   37.7749   -6.6140    0.0000 O   0  0  0  0  0  0  0  0  0  0  0  0
   40.4148   -2.4044    0.0000 C   0  0  0  0  0  0  0  0  0  0  0  0
   39.0049   -8.1640    0.0000 C   0  0  0  0  0  0  0  0  0  0  0  0
   30.4255   -5.6991    0.0000 C   0  0  0  0  0  0  0  0  0  0  0  0
   26.8507   -3.6343    0.0000 O   0  0  0  0  0  0  0  0  0  0  0  0
   34.7002   -5.7191    0.0000 C   0  0  0  0  0  0  0  0  0  0  0  0
   36.9450   -8.0440    0.0000 C   0  0  0  0  0  0  0  0  0  0  0  0
   41.8546   -7.3390    0.0000 C   0  0  0  0  0  0  0  0  0  0  0  0
   42.5596   -4.4592    0.0000 C   0  0  0  0  0  0  0  0  0  0  0  0
   36.1401   -2.4194    0.0000 C   0  0  0  0  0  0  0  0  0  0  0  0
   32.5703   -3.6343    0.0000 C   0  0  0  0  0  0  0  0  0  0  0  0
   28.2806   -3.6292    0.0000 C   0  0  0  0  0  0  0  0  0  0  0  0
   39.0049   -4.8792    0.0000 C   0  0  0  0  0  0  0  0  0  0  0  0
   43.9845   -4.4592    0.0000 N   0  0  0  0  0  0  0  0  0  0  0  0
   29.0006   -2.3894    0.0000 N   0  0  0  0  0  0  0  0  0  0  0  0
   33.2903   -2.3894    0.0000 N   0  0  0  0  0  0  0  0  0  0  0  0
   42.5746   -8.5689    0.0000 N   0  0  0  0  0  0  0  0  0  0  0  0
   35.4051   -1.1895    0.0000 N   0  0  0  0  0  0  0  0  0  0  0  0
   38.2999   -8.5839    0.0000 O   0  0  0  0  0  0  0  0  0  0  0  0
   31.1454   -6.1091    0.0000 O   0  0  0  0  0  0  0  0  0  0  0  0
   41.1347   -1.9844    0.0000 C   0  0  0  0  0  0  0  0  0  0  0  0
   26.1358   -4.8642    0.0000 C   0  0  0  0  0  0  0  0  0  0  0  0
   43.2745   -4.8642    0.0000 C   0  0  0  0  0  0  0  0  0  0  0  0
   35.4201   -2.0144    0.0000 C   0  0  0  0  0  0  0  0  0  0  0  0
   41.8546   -8.1640    0.0000 C   0  0  0  0  0  0  0  0  0  0  0  0
   29.0006   -3.2143    0.0000 C   0  0  0  0  0  0  0  0  0  0  0  0
   33.2903   -3.2143    0.0000 C   0  0  0  0  0  0  0  0  0  0  0  0
   39.7248   -8.5839    0.0000 C   0  0  0  0  0  0  0  0  0  0  0  0
   29.7155   -6.1091    0.0000 C   0  0  0  0  0  0  0  0  0  0  0  0
   39.0049   -5.7141    0.0000 C   0  0  0  0  0  0  0  0  0  0  0  0
   39.7198   -4.4692    0.0000 C   0  0  0  0  0  0  0  0  0  0  0  0
   23.2710   -4.8642    0.0000 C   0  0  0  0  0  0  0  0  0  0  0  0
   25.4258   -4.4592    0.0000 C   0  0  0  0  0  0  0  0  0  0  0  0
   22.5610   -4.4592    0.0000 C   0  0  0  0  0  0  0  0  0  0  0  0
   23.9909   -4.4592    0.0000 C   0  0  0  0  0  0  0  0  0  0  0  0
   41.8546   -2.3993    0.0000 C   0  0  0  0  0  0  0  0  0  0  0  0
   41.1347   -1.1595    0.0000 C   0  0  0  0  0  0  0  0  0  0  0  0
   24.7109   -4.8642    0.0000 C   0  0  0  0  0  0  0  0  0  0  0  0
   23.2710   -5.6991    0.0000 C   0  0  0  0  0  0  0  0  0  0  0  0
   39.7198   -6.1191    0.0000 C   0  0  0  0  0  0  0  0  0  0  0  0
   40.4298   -4.8741    0.0000 C   0  0  0  0  0  0  0  0  0  0  0  0
   40.4397   -5.7041    0.0000 C   0  0  0  0  0  0  0  0  0  0  0  0
   35.4501   -5.3142    0.0000 H   0  0  0  0  0  0  0  0  0  0  0  0
   31.1304   -5.2842    0.0000 H   0  0  0  0  0  0  0  0  0  0  0  0
   39.7498   -7.7689    0.0000 H   0  0  0  0  0  0  0  0  0  0  0  0
   39.8875    1.1696    0.0000 N   0  0  0  0  0  0  0  0  0  0  0  0
   39.1726    0.7596    0.0000 C   0  0  0  0  0  0  0  0  0  0  0  0
   30.5933    3.2344    0.0000 C   0  0  0  0  0  0  0  0  0  0  0  0
   31.3132    3.6394    0.0000 C   0  0  0  0  0  0  0  0  0  0  0  0
   39.8776    4.4543    0.0000 N   0  0  0  0  0  0  0  0  0  0  0  0
   37.7477    4.8693    0.0000 N   0  0  0  0  0  0  0  0  0  0  0  0
   29.8833    3.6394    0.0000 N   0  0  0  0  0  0  0  0  0  0  0  0
   41.2974    3.6394    0.0000 N   0  0  0  0  0  0  0  0  0  0  0  0
   40.5925    0.7596    0.0000 C   0  0  0  0  0  0  0  0  0  0  0  0
   41.3025    1.9945    0.0000 N   0  0  0  0  0  0  0  0  0  0  0  0
   35.6129    4.4243    0.0000 N   0  0  0  0  0  0  0  0  0  0  0  0
   39.1726    4.8693    0.0000 C   0  0  0  0  0  0  0  0  0  0  0  0
   41.3025    4.4643    0.0000 C   0  0  0  0  0  0  0  0  0  0  0  0
   37.0278    4.4493    0.0000 C   0  0  0  0  0  0  0  0  0  0  0  0
   42.0074    2.4095    0.0000 C   0  0  0  0  0  0  0  0  0  0  0  0
   35.6029    3.6094    0.0000 C   0  0  0  0  0  0  0  0  0  0  0  0
   29.1684    3.2344    0.0000 C   0  0  0  0  0  0  0  0  0  0  0  0
   38.3577    0.7646    0.0000 C   0  0  0  0  0  0  0  0  0  0  0  0
   38.4626    4.4493    0.0000 C   0  0  0  0  0  0  0  0  0  0  0  0
   40.5925    4.8693    0.0000 C   0  0  0  0  0  0  0  0  0  0  0  0
   33.4581    3.2344    0.0000 C   0  0  0  0  0  0  0  0  0  0  0  0
   32.0332    3.2344    0.0000 N   0  0  0  0  0  0  0  0  0  0  0  0
   34.1780    3.6244    0.0000 N   0  0  0  0  0  0  0  0  0  0  0  0
   41.3025    1.1795    0.0000 C   0  0  0  0  0  0  0  0  0  0  0  0
   36.3228    4.8543    0.0000 C   0  0  0  0  0  0  0  0  0  0  0  0
   42.0074    3.2344    0.0000 C   0  0  0  0  0  0  0  0  0  0  0  0
   34.8830    3.2044    0.0000 C   0  0  0  0  0  0  0  0  0  0  0  0
   27.7285    3.2344    0.0000 N   0  0  0  0  0  0  0  0  0  0  0  0
   32.7381    3.6394    0.0000 C   0  0  0  0  0  0  0  0  0  0  0  0
   37.9377    0.0546    0.0000 N   0  0  0  0  0  0  0  0  0  0  0  0
   28.4484    3.6444    0.0000 C   0  0  0  0  0  0  0  0  0  0  0  0
   27.0185    3.6394    0.0000 C   0  0  0  0  0  0  0  0  0  0  0  0
   31.3132    4.4643    0.0000 O   0  0  0  0  0  0  0  0  0  0  0  0
   40.5925   -0.0654    0.0000 O   0  0  0  0  0  0  0  0  0  0  0  0
   42.0174    4.8693    0.0000 O   0  0  0  0  0  0  0  0  0  0  0  0
   39.1726    5.6942    0.0000 O   0  0  0  0  0  0  0  0  0  0  0  0
   37.0428    3.6244    0.0000 O   0  0  0  0  0  0  0  0  0  0  0  0
   42.7274    1.9945    0.0000 O   0  0  0  0  0  0  0  0  0  0  0  0
   36.3178    3.1894    0.0000 O   0  0  0  0  0  0  0  0  0  0  0  0
   38.4626    3.6244    0.0000 C   0  0  0  0  0  0  0  0  0  0  0  0
   29.1684    2.4095    0.0000 O   0  0  0  0  0  0  0  0  0  0  0  0
   33.4581    2.3995    0.0000 O   0  0  0  0  0  0  0  0  0  0  0  0
   37.9427    1.4846    0.0000 O   0  0  0  0  0  0  0  0  0  0  0  0
   40.5825    5.6942    0.0000 C   0  0  0  0  0  0  0  0  0  0  0  0
   39.1726   -0.0654    0.0000 C   0  0  0  0  0  0  0  0  0  0  0  0
   30.5933    2.3995    0.0000 C   0  0  0  0  0  0  0  0  0  0  0  0
   27.0185    4.4643    0.0000 O   0  0  0  0  0  0  0  0  0  0  0  0
   34.8680    2.3795    0.0000 C   0  0  0  0  0  0  0  0  0  0  0  0
   37.1127    0.0546    0.0000 C   0  0  0  0  0  0  0  0  0  0  0  0
   42.0224    0.7596    0.0000 C   0  0  0  0  0  0  0  0  0  0  0  0
   42.7274    3.6394    0.0000 C   0  0  0  0  0  0  0  0  0  0  0  0
   36.3078    5.6792    0.0000 C   0  0  0  0  0  0  0  0  0  0  0  0
   32.7381    4.4643    0.0000 C   0  0  0  0  0  0  0  0  0  0  0  0
   28.4484    4.4693    0.0000 C   0  0  0  0  0  0  0  0  0  0  0  0
   39.1726    3.2194    0.0000 C   0  0  0  0  0  0  0  0  0  0  0  0
   44.1523    3.6394    0.0000 N   0  0  0  0  0  0  0  0  0  0  0  0
   29.1684    5.7092    0.0000 N   0  0  0  0  0  0  0  0  0  0  0  0
   33.4581    5.7092    0.0000 N   0  0  0  0  0  0  0  0  0  0  0  0
   42.7424   -0.4703    0.0000 N   0  0  0  0  0  0  0  0  0  0  0  0
   35.5729    6.9091    0.0000 N   0  0  0  0  0  0  0  0  0  0  0  0
   38.4677   -0.4853    0.0000 O   0  0  0  0  0  0  0  0  0  0  0  0
   31.3132    1.9895    0.0000 O   0  0  0  0  0  0  0  0  0  0  0  0
   41.3025    6.1142    0.0000 C   0  0  0  0  0  0  0  0  0  0  0  0
   26.3036    3.2344    0.0000 C   0  0  0  0  0  0  0  0  0  0  0  0
   43.4423    3.2344    0.0000 C   0  0  0  0  0  0  0  0  0  0  0  0
   35.5879    6.0842    0.0000 C   0  0  0  0  0  0  0  0  0  0  0  0
   42.0224   -0.0654    0.0000 C   0  0  0  0  0  0  0  0  0  0  0  0
   29.1684    4.8843    0.0000 C   0  0  0  0  0  0  0  0  0  0  0  0
   33.4581    4.8843    0.0000 C   0  0  0  0  0  0  0  0  0  0  0  0
   39.8926   -0.4853    0.0000 C   0  0  0  0  0  0  0  0  0  0  0  0
   29.8833    1.9895    0.0000 C   0  0  0  0  0  0  0  0  0  0  0  0
   39.1726    2.3845    0.0000 C   0  0  0  0  0  0  0  0  0  0  0  0
   39.8875    3.6294    0.0000 C   0  0  0  0  0  0  0  0  0  0  0  0
   23.4388    3.2344    0.0000 C   0  0  0  0  0  0  0  0  0  0  0  0
   25.5936    3.6394    0.0000 C   0  0  0  0  0  0  0  0  0  0  0  0
   22.7288    3.6394    0.0000 C   0  0  0  0  0  0  0  0  0  0  0  0
   24.1587    3.6394    0.0000 C   0  0  0  0  0  0  0  0  0  0  0  0
   42.0224    5.6993    0.0000 C   0  0  0  0  0  0  0  0  0  0  0  0
   41.3025    6.9391    0.0000 C   0  0  0  0  0  0  0  0  0  0  0  0
   24.8787    3.2344    0.0000 C   0  0  0  0  0  0  0  0  0  0  0  0
   23.4388    2.3995    0.0000 C   0  0  0  0  0  0  0  0  0  0  0  0
   22.0139    3.2244    0.0000 C   0  0  0  0  0  0  0  0  0  0  0  0
   39.8875    1.9795    0.0000 C   0  0  0  0  0  0  0  0  0  0  0  0
   40.5975    3.2244    0.0000 C   0  0  0  0  0  0  0  0  0  0  0  0
   40.6075    2.3945    0.0000 C   0  0  0  0  0  0  0  0  0  0  0  0
   35.6179    2.7844    0.0000 H   0  0  0  0  0  0  0  0  0  0  0  0
   31.2982    2.8144    0.0000 H   0  0  0  0  0  0  0  0  0  0  0  0
   39.9175    0.3296    0.0000 H   0  0  0  0  0  0  0  0  0  0  0  0
  2  1  1  0
  3  4  1  0
  4 22  1  0
  5 20  1  0
  6 14  1  0
  7  3  1  0
  8 26  1  0
  9  1  1  0
 10 24  1  0
 11 16  1  0
 12  5  1  0
 13  8  1  0
 14 25  1  0
 15 10  1  0
 16 27  1  0
 17  7  1  0
 18  2  1  0
 19 12  1  0
 20 13  1  0
 21 23  1  0
 22 29  1  0
 23 27  1  0
 24  9  1  0
 25 11  1  0
 26 15  1  0
 27 48  1  0
 28 31  1  0
 29 21  1  0
 30 18  1  0
 31 17  1  0
 32 28  1  0
 33  4  2  0
 34  9  2  0
 35 13  2  0
 36 12  2  0
 37 14  2  0
 38 15  2  0
 39 16  2  0
 19 40  1  1
 41 17  2  0
 42 21  2  0
 43 18  2  0
 20 44  1  1
 45  2  1  0
 46  3  1  0
 47 32  2  0
 48 49  1  0
 49 30  1  0
 24 50  1  1
 26 51  1  1
 25 52  1  6
 29 53  1  1
 31 54  1  1
 55 40  1  0
 56 65  1  0
 57 68  1  0
 58 69  1  0
 59 67  1  0
 60 66  1  0
 45 61  1  1
 46 62  1  6
 63 44  1  0
 64 32  1  0
 65 51  1  0
 66 52  1  0
 67 50  1  0
 68 54  1  0
 69 53  1  0
 70 45  1  0
 71 46  1  0
 72 55  2  0
 73 55  1  0
 74 77  1  0
 75 64  1  0
 76 74  1  0
 77 80  1  0
 78 63  1  0
 79 63  1  0
 80 75  1  0
 81 74  1  0
 82 72  1  0
 83 73  2  0
 84 82  2  0
 27 85  1  1
  3 86  1  1
  2 87  1  6
  6 19  1  0
 84 83  1  0
 89 88  1  0
 90 91  1  0
 91109  1  0
 92107  1  0
 93101  1  0
 94 90  1  0
 95113  1  0
 96 88  1  0
 97111  1  0
 98103  1  0
 99 92  1  0
100 95  1  0
101112  1  0
102 97  1  0
103114  1  0
104 94  1  0
105 89  1  0
106 99  1  0
107100  1  0
108110  1  0
109116  1  0
110114  1  0
111 96  1  0
112 98  1  0
113102  1  0
114135  1  0
115118  1  0
116108  1  0
117105  1  0
118104  1  0
119115  1  0
120 91  2  0
121 96  2  0
122100  2  0
123 99  2  0
124101  2  0
125102  2  0
126103  2  0
106127  1  1
128104  2  0
129108  2  0
130105  2  0
107131  1  1
132 89  1  0
133 90  1  0
134119  2  0
135136  1  0
136117  1  0
111137  1  1
113138  1  1
112139  1  6
116140  1  1
118141  1  1
142127  1  0
143152  1  0
144155  1  0
145156  1  0
146154  1  0
147153  1  0
132148  1  1
133149  1  6
150131  1  0
151119  1  0
152138  1  0
153139  1  0
154137  1  0
155141  1  0
156140  1  0
157132  1  0
158133  1  0
159142  2  0
160142  1  0
161164  1  0
162151  1  0
163161  1  0
164167  1  0
165150  1  0
166150  1  0
167162  1  0
161168  1  1
169163  1  0
170159  1  0
171160  2  0
172170  2  0
114173  1  1
 90174  1  1
 89175  1  6
 93106  1  0
172171  1  0
M  END

> <chembl_id>
CHEMBL3989738

> <chembl_pref_name>
POLYMYXIN B

$$$$

     RDKit          2D

 32 35  0  0  0  0  0  0  0  0999 V2000
    7.0156  -10.6157    0.0000 C   0  0  0  0  0  0  0  0  0  0  0  0
    4.0874   -9.6381    0.0000 N   0  0  0  0  0  0  0  0  0  0  0  0
   14.2886   -9.5155    0.0000 O   0  0  0  0  0  0  0  0  0  0  0  0
   12.1148  -10.6964    0.0000 C   0  0  0  0  0  0  0  0  0  0  0  0
    8.4342   -9.7907    0.0000 N   0  0  0  0  0  0  0  0  0  0  0  0
    4.8731   -9.3824    0.0000 C   0  0  0  0  0  0  0  0  0  0  0  0
    8.4342   -8.1364    0.0000 O   0  0  0  0  0  0  0  0  0  0  0  0
   10.6928  -10.6605    0.0000 C   0  0  0  0  0  0  0  0  0  0  0  0
    7.0156   -9.7907    0.0000 C   0  0  0  0  0  0  0  0  0  0  0  0
    5.5929   -9.7907    0.0000 S   0  0  0  0  0  0  0  0  0  0  0  0
   10.7163   -9.8311    0.0000 O   0  0  0  0  0  0  0  0  0  0  0  0
    4.0810   -8.3002    0.0000 N   0  0  0  0  0  0  0  0  0  0  0  0
   12.1321   -9.8772    0.0000 C   0  0  0  0  0  0  0  0  0  0  0  0
    4.8665   -8.5645    0.0000 C   0  0  0  0  0  0  0  0  0  0  0  0
    8.4321  -10.6157    0.0000 C   0  0  0  0  0  0  0  0  0  0  0  0
    8.4237  -11.4323    0.0000 H   0  0  0  0  0  0  0  0  0  0  0  0
    9.8465   -9.2182    0.0000 O   0  0  0  0  0  0  0  0  0  0  0  0
   11.3762  -11.9142    0.0000 N   0  0  0  0  0  0  0  0  0  0  0  0
    3.6044   -8.9782    0.0000 N   0  0  0  0  0  0  0  0  0  0  0  0
    7.7249   -8.5468    0.0000 C   0  0  0  0  0  0  0  0  0  0  0  0
   11.3881  -11.0899    0.0000 C   0  0  0  0  0  0  0  0  0  0  0  0
   12.8183  -11.1237    0.0000 C   0  0  0  0  0  0  0  0  0  0  0  0
   12.8579   -9.4796    0.0000 C   0  0  0  0  0  0  0  0  0  0  0  0
    6.2959   -9.3803    0.0000 C   0  0  0  0  0  0  0  0  0  0  0  0
    9.9631  -11.0534    0.0000 N   0  0  0  0  0  0  0  0  0  0  0  0
    7.7249  -11.0178    0.0000 S   0  0  0  0  0  0  0  0  0  0  0  0
    9.2593   -9.7907    0.0000 C   0  0  0  0  0  0  0  0  0  0  0  0
    7.7249   -9.3718    0.0000 C   0  0  0  0  0  0  0  0  0  0  0  0
    7.0093   -8.1364    0.0000 O   0  0  0  0  0  0  0  0  0  0  0  0
   13.5623   -9.9109    0.0000 C   0  0  0  0  0  0  0  0  0  0  0  0
   13.5379  -10.7364    0.0000 C   0  0  0  0  0  0  0  0  0  0  0  0
    9.2593  -10.6157    0.0000 C   0  0  0  0  0  0  0  0  0  0  0  0
  7 20  1  0
 21  8  1  0
 11  8  2  0
  9 28  2  0
 24  9  1  0
 14  6  2  0
  1 26  1  0
 31 22  1  0
 15  5  1  0
  6 10  1  0
  1  9  1  0
 10 24  1  0
 23 13  2  0
 27 32  1  0
 19 12  1  0
 32 25  1  1
  8 25  1  0
  2  6  1  0
 13  4  1  0
 15 16  1  6
 27  5  1  0
 20 28  1  0
 17 27  2  0
 22  4  2  0
 30 23  1  0
 29 20  2  0
 30 31  2  0
  4 21  1  0
 12 14  1  0
  3 30  1  0
 26 15  1  0
 21 18  1  1
 19  2  2  0
 32 15  1  0
 28  5  1  0
M  END

> <chembl_id>
CHEMBL1095284

> <chembl_pref_name>
CEFATRIZINE

$$$$

     RDKit          2D

 27 29  0  0  0  0  0  0  0  0999 V2000
    5.6719   -1.0044    0.0000 N   0  0  0  0  0  0  0  0  0  0  0  0
    4.8426   -1.0002    0.0000 C   0  0  0  0  0  0  0  0  0  0  0  0
    4.8384   -1.8211    0.0000 C   0  0  0  0  0  0  0  0  0  0  0  0
    5.6594   -1.8336    0.0000 C   0  0  0  0  0  0  0  0  0  0  0  0
    6.3887   -0.6001    0.0000 C   0  0  0  0  0  0  0  0  0  0  0  0
    2.6880   -3.0464    0.0000 C   0  0  0  0  0  0  0  0  0  0  0  0
    2.6880   -2.2254    0.0000 C   0  0  0  0  0  0  0  0  0  0  0  0
    2.0129   -3.5340    0.0000 N   0  0  0  0  0  0  0  0  0  0  0  0
    4.1175   -2.2296    0.0000 N   0  0  0  0  0  0  0  0  0  0  0  0
    3.4048   -1.8170    0.0000 C   0  0  0  0  0  0  0  0  0  0  0  0
    6.3720   -2.2546    0.0000 S   0  0  0  0  0  0  0  0  0  0  0  0
    2.2629   -4.3216    0.0000 C   0  0  0  0  0  0  0  0  0  0  0  0
    7.0971   -1.0210    0.0000 C   0  0  0  0  0  0  0  0  0  0  0  0
    3.3464   -3.5382    0.0000 C   0  0  0  0  0  0  0  0  0  0  0  0
    3.0881   -4.3258    0.0000 S   0  0  0  0  0  0  0  0  0  0  0  0
    6.3970    0.2250    0.0000 C   0  0  0  0  0  0  0  0  0  0  0  0
    7.0930   -1.8503    0.0000 C   0  0  0  0  0  0  0  0  0  0  0  0
    1.9796   -1.8086    0.0000 N   0  0  0  0  0  0  0  0  0  0  0  0
    4.2633   -0.4084    0.0000 O   0  0  0  0  0  0  0  0  0  0  0  0
    3.4089   -0.9877    0.0000 O   0  0  0  0  0  0  0  0  0  0  0  0
    7.1138    0.6293    0.0000 O   0  0  0  0  0  0  0  0  0  0  0  0
    1.7753   -4.9801    0.0000 N   0  0  0  0  0  0  0  0  0  0  0  0
    5.6886    0.6418    0.0000 O   0  0  0  0  0  0  0  0  0  0  0  0
    7.8182   -0.6168    0.0000 C   0  0  0  0  0  0  0  0  0  0  0  0
    5.6553   -2.6547    0.0000 H   0  0  0  0  0  0  0  0  0  0  0  0
    1.9796   -0.9836    0.0000 O   0  0  0  0  0  0  0  0  0  0  0  0
    1.2651   -0.5711    0.0000 C   0  0  0  0  0  0  0  0  0  0  0  0
  2  1  1  0
  3  2  1  0
  4  1  1  0
  5  1  1  0
  6  7  1  0
  7 10  1  0
  8  6  1  0
  3  9  1  6
 10  9  1  0
 11  4  1  0
 12  8  2  0
 13  5  2  0
 14  6  2  0
 15 14  1  0
 16  5  1  0
 17 13  1  0
 18  7  2  0
 19  2  2  0
 20 10  2  0
 21 16  2  0
 22 12  1  0
 23 16  1  0
 24 13  1  0
  4 25  1  1
  4  3  1  0
 11 17  1  0
 15 12  1  0
 18 26  1  0
 26 27  1  0
M  END

> <chembl_id>
CHEMBL2103764

> <chembl_pref_name>
CEFETAMET

$$$$

     RDKit          2D

 33 35  0  0  1  0  0  0  0  0999 V2000
    6.9187   -1.4116    0.0000 N   0  0  0  0  0  0  0  0  0  0  0  0
    6.9187   -0.5854    0.0000 C   0  0  0  0  0  0  0  0  0  0  0  0
    6.0925   -1.4116    0.0000 C   0  0  0  0  0  0  0  0  0  0  0  0
    6.0925   -0.5854    0.0000 C   0  0  0  0  0  0  0  0  0  0  0  0
    7.6990   -1.6620    0.0000 C   0  0  0  0  0  0  0  0  0  0  0  0
    7.6990   -0.3309    0.0000 S   0  0  0  0  0  0  0  0  0  0  0  0
    8.1831   -0.9943    0.0000 C   0  0  0  0  0  0  0  0  0  0  0  0
    5.5084   -0.0054    0.0000 N   0  0  0  0  0  0  0  0  0  0  0  0
    4.7073   -0.2182    0.0000 C   0  0  0  0  0  0  0  0  0  0  0  0
    7.9576   -2.4507    0.0000 C   0  0  0  0  0  0  0  0  0  0  0  0
    7.3443   -5.2296    0.0000 C   0  0  0  0  0  0  0  0  0  0  0  0
    4.1273    0.3701    0.0000 C   0  0  0  0  0  0  0  0  0  0  0  0
    5.5084   -1.9874    0.0000 O   0  0  0  0  0  0  0  0  0  0  0  0
    6.7810   -5.8387    0.0000 C   0  0  0  0  0  0  0  0  0  0  0  0
    4.4945   -0.9986    0.0000 O   0  0  0  0  0  0  0  0  0  0  0  0
    7.3986   -3.0640    0.0000 O   0  0  0  0  0  0  0  0  0  0  0  0
    7.0940   -4.4534    0.0000 O   0  0  0  0  0  0  0  0  0  0  0  0
    7.6489   -3.8483    0.0000 C   0  0  0  0  0  0  0  0  0  0  0  0
    8.7587   -2.6258    0.0000 O   0  0  0  0  0  0  0  0  0  0  0  0
    8.1454   -5.4173    0.0000 O   0  0  0  0  0  0  0  0  0  0  0  0
    3.3261    0.1656    0.0000 C   0  0  0  0  0  0  0  0  0  0  0  0
    4.3401    1.1546    0.0000 N   0  0  0  0  0  0  0  0  0  0  0  0
    8.8256   -1.5118    0.0000 C   0  0  0  0  0  0  0  0  0  0  0  0
    8.6711   -0.3226    0.0000 C   0  0  0  0  0  0  0  0  0  0  0  0
    6.2219   -6.4438    0.0000 C   0  0  0  0  0  0  0  0  0  0  0  0
    7.3861   -6.3937    0.0000 C   0  0  0  0  0  0  0  0  0  0  0  0
    6.1802   -5.2797    0.0000 C   0  0  0  0  0  0  0  0  0  0  0  0
    2.7420    0.7415    0.0000 C   0  0  0  0  0  0  0  0  0  0  0  0
    3.1050   -0.6356    0.0000 C   0  0  0  0  0  0  0  0  0  0  0  0
    2.3122   -0.8484    0.0000 C   0  0  0  0  0  0  0  0  0  0  0  0
    1.9534    0.5327    0.0000 C   0  0  0  0  0  0  0  0  0  0  0  0
    1.7280   -0.2600    0.0000 C   0  0  0  0  0  0  0  0  0  0  0  0
    6.9187    0.2407    0.0000 H   0  0  0  0  0  0  0  0  0  0  0  0
  2  1  1  0
  3  1  1  0
  4  3  1  0
  5  1  1  0
  6  2  1  0
  7  5  1  0
  4  8  1  1
  9  8  1  0
  5 10  1  6
 11 17  1  0
 12  9  1  0
 13  3  2  0
 14 11  1  0
 15  9  2  0
 16 10  1  0
 17 18  1  0
 18 16  1  0
 19 10  2  0
 20 11  2  0
 21 12  1  0
 12 22  1  1
 23  7  1  0
 24  7  1  0
 25 14  1  0
 26 14  1  0
 27 14  1  0
 28 21  2  0
 29 21  1  0
 30 29  2  0
 31 28  1  0
 32 30  1  0
  2 33  1  6
  6  7  1  0
  2  4  1  0
 31 32  2  0
M  END

> <chembl_id>
CHEMBL3182343

> <chembl_pref_name>
PIVAMPICILLIN

$$$$

     RDKit          2D

 38 41  0  0  0  0  0  0  0  0999 V2000
   -1.0708   -1.9000    0.0000 C   0  0  0  0  0  0  0  0  0  0  0  0
   -1.7208   -1.4292    0.0000 C   0  0  0  0  0  0  0  0  0  0  0  0
   -2.2333   -2.7250    0.0000 N   0  0  0  0  0  0  0  0  0  0  0  0
   -2.4333   -1.8000    0.0000 N   0  0  0  0  0  0  0  0  0  0  0  0
   -1.1833   -2.7042    0.0000 C   0  0  0  0  0  0  0  0  0  0  0  0
    2.2792    0.1375    0.0000 S   0  0  0  0  0  0  0  0  0  0  0  0
   -0.1958   -1.5667    0.0000 C   0  0  0  0  0  0  0  0  0  0  0  0
    0.4792   -2.2292    0.0000 S   0  0  0  0  0  0  0  0  0  0  0  0
    2.9750    0.2833    0.0000 N   0  0  0  0  0  0  0  0  0  0  0  0
    3.1542    0.9458    0.0000 C   0  0  0  0  0  0  0  0  0  0  0  0
   -0.4458   -0.6250    0.0000 N   0  0  0  0  0  0  0  0  0  0  0  0
    3.8500    1.0833    0.0000 N   0  0  0  0  0  0  0  0  0  0  0  0
    4.0792    1.8833    0.0000 N   0  0  0  0  0  0  0  0  0  0  0  0
    1.6542   -0.0542    0.0000 C   0  0  0  0  0  0  0  0  0  0  0  0
    2.5167   -0.6042    0.0000 O   0  0  0  0  0  0  0  0  0  0  0  0
    2.0542    0.8625    0.0000 O   0  0  0  0  0  0  0  0  0  0  0  0
   -1.7208   -0.7792    0.0000 O   0  0  0  0  0  0  0  0  0  0  0  0
    0.9542   -1.7417    0.0000 O   0  0  0  0  0  0  0  0  0  0  0  0
    0.0042   -2.7042    0.0000 O   0  0  0  0  0  0  0  0  0  0  0  0
   -3.1375   -1.6292    0.0000 C   0  0  0  0  0  0  0  0  0  0  0  0
    3.5375    2.3833    0.0000 C   0  0  0  0  0  0  0  0  0  0  0  0
    0.9542   -2.6875    0.0000 O   0  0  0  0  0  0  0  0  0  0  0  0
    1.1542    0.4208    0.0000 C   0  0  0  0  0  0  0  0  0  0  0  0
    1.4750   -0.7042    0.0000 C   0  0  0  0  0  0  0  0  0  0  0  0
    0.3292   -0.4167    0.0000 C   0  0  0  0  0  0  0  0  0  0  0  0
   -2.7958   -3.1792    0.0000 C   0  0  0  0  0  0  0  0  0  0  0  0
   -0.5958   -3.1375    0.0000 C   0  0  0  0  0  0  0  0  0  0  0  0
    2.6417    1.4125    0.0000 C   0  0  0  0  0  0  0  0  0  0  0  0
    2.8792    2.2083    0.0000 C   0  0  0  0  0  0  0  0  0  0  0  0
    0.5000    0.2375    0.0000 C   0  0  0  0  0  0  0  0  0  0  0  0
    0.8167   -0.9000    0.0000 C   0  0  0  0  0  0  0  0  0  0  0  0
    3.7167    3.0000    0.0000 O   0  0  0  0  0  0  0  0  0  0  0  0
   -3.7458   -2.0167    0.0000 C   0  0  0  0  0  0  0  0  0  0  0  0
   -3.1375   -1.0000    0.0000 C   0  0  0  0  0  0  0  0  0  0  0  0
    4.3417    3.1833    0.0000 C   0  0  0  0  0  0  0  0  0  0  0  0
   -3.7208   -0.7042    0.0000 C   0  0  0  0  0  0  0  0  0  0  0  0
   -4.3458   -1.6667    0.0000 C   0  0  0  0  0  0  0  0  0  0  0  0
   -4.3458   -1.0375    0.0000 C   0  0  0  0  0  0  0  0  0  0  0  0
  2  1  1  0
  3  5  1  0
  4  2  1  0
  5  1  2  0
  6 14  1  0
  7  1  1  0
  8  7  1  0
  9  6  1  0
 10  9  1  0
 11  7  1  0
 12 10  2  0
 13 12  1  0
 14 24  2  0
 15  6  2  0
 16  6  2  0
 17  2  2  0
 18  8  2  0
 19  8  2  0
 20  4  1  0
 21 29  1  0
 22  8  1  0
 23 30  2  0
 24 31  1  0
 25 11  1  0
 26  3  1  0
 27  5  1  0
 28 10  1  0
 29 28  2  0
 30 25  1  0
 31 25  2  0
 32 21  1  0
 33 20  1  0
 34 20  2  0
 35 32  1  0
 36 34  1  0
 37 33  2  0
 38 36  2  0
  4  3  1  0
 23 14  1  0
 37 38  1  0
 13 21  2  0
M  END

> <chembl_id>
CHEMBL2104921

> <chembl_pref_name>
SULFAMAZONE

$$$$

     RDKit          2D

105111  0  0  0  0  0  0  0  0999 V2000
    6.6418   -8.0218    0.0000 C   0  0  0  0  0  0  0  0  0  0  0  0
    5.4029   -7.3076    0.0000 C   0  0  0  0  0  0  0  0  0  0  0  0
    5.8208   -8.0218    0.0000 C   0  0  0  0  0  0  0  0  0  0  0  0
    3.4594   -8.4445    0.0000 C   0  0  0  0  0  0  0  0  0  0  0  0
    3.8676   -7.7303    0.0000 C   0  0  0  0  0  0  0  0  0  0  0  0
    2.6334   -8.4445    0.0000 C   0  0  0  0  0  0  0  0  0  0  0  0
    4.5818   -7.3076    0.0000 O   0  0  0  0  0  0  0  0  0  0  0  0
    7.3561   -8.4299    0.0000 O   0  0  0  0  0  0  0  0  0  0  0  0
    7.7642   -9.1442    0.0000 C   0  0  0  0  0  0  0  0  0  0  0  0
    2.2107   -7.7303    0.0000 C   0  0  0  0  0  0  0  0  0  0  0  0
    7.0598   -7.3076    0.0000 C   0  0  0  0  0  0  0  0  0  0  0  0
    5.8208   -6.5933    0.0000 C   0  0  0  0  0  0  0  0  0  0  0  0
    8.5950   -9.1442    0.0000 O   0  0  0  0  0  0  0  0  0  0  0  0
    3.4594   -7.0160    0.0000 O   0  0  0  0  0  0  0  0  0  0  0  0
    6.6418   -6.5933    0.0000 C   0  0  0  0  0  0  0  0  0  0  0  0
    2.6334   -7.0160    0.0000 C   0  0  0  0  0  0  0  0  0  0  0  0
    7.3561   -9.8584    0.0000 C   0  0  0  0  0  0  0  0  0  0  0  0
    2.2205   -9.1587    0.0000 N   0  0  0  0  0  0  0  0  0  0  0  0
    3.8724   -9.1587    0.0000 O   0  0  0  0  0  0  0  0  0  0  0  0
    5.4029   -8.7360    0.0000 O   0  0  0  0  0  0  0  0  0  0  0  0
    7.7642  -10.5726    0.0000 C   0  0  0  0  0  0  0  0  0  0  0  0
    7.8808   -7.3076    0.0000 N   0  0  0  0  0  0  0  0  0  0  0  0
    5.4029   -5.8791    0.0000 N   0  0  0  0  0  0  0  0  0  0  0  0
    9.0032   -9.8584    0.0000 C   0  0  0  0  0  0  0  0  0  0  0  0
    1.4964   -7.3172    0.0000 O   0  0  0  0  0  0  0  0  0  0  0  0
    6.5252   -9.8584    0.0000 N   0  0  0  0  0  0  0  0  0  0  0  0
    8.5950  -10.5726    0.0000 C   0  0  0  0  0  0  0  0  0  0  0  0
   10.4316   -9.8438    0.0000 N   0  0  0  0  0  0  0  0  0  0  0  0
    1.4964   -8.1384    0.0000 C   0  0  0  0  0  0  0  0  0  0  0  0
    9.7126   -9.4357    0.0000 C   0  0  0  0  0  0  0  0  0  0  0  0
    1.3944   -9.1587    0.0000 C   0  0  0  0  0  0  0  0  0  0  0  0
    4.5818   -8.1384    0.0000 H   0  0  0  0  0  0  0  0  0  0  0  0
    9.7174  -10.2762    0.0000 H   0  0  0  0  0  0  0  0  0  0  0  0
    6.6418   -8.8477    0.0000 H   0  0  0  0  0  0  0  0  0  0  0  0
    0.8697   -2.9056    0.0000 C   0  0  0  0  0  0  0  0  0  0  0  0
   -0.3693   -2.1913    0.0000 C   0  0  0  0  0  0  0  0  0  0  0  0
    0.0388   -2.9056    0.0000 C   0  0  0  0  0  0  0  0  0  0  0  0
   -2.3225   -3.3283    0.0000 C   0  0  0  0  0  0  0  0  0  0  0  0
   -1.9144   -2.6140    0.0000 C   0  0  0  0  0  0  0  0  0  0  0  0
   -3.1436   -3.3283    0.0000 C   0  0  0  0  0  0  0  0  0  0  0  0
    1.9920   -4.0376    0.0000 C   0  0  0  0  0  0  0  0  0  0  0  0
   -1.2001   -2.2010    0.0000 O   0  0  0  0  0  0  0  0  0  0  0  0
    1.5839   -3.3234    0.0000 O   0  0  0  0  0  0  0  0  0  0  0  0
    2.8181   -4.0376    0.0000 O   0  0  0  0  0  0  0  0  0  0  0  0
   -3.5615   -2.6140    0.0000 C   0  0  0  0  0  0  0  0  0  0  0  0
    1.2778   -2.1913    0.0000 C   0  0  0  0  0  0  0  0  0  0  0  0
    0.0388   -1.4771    0.0000 C   0  0  0  0  0  0  0  0  0  0  0  0
   -2.3225   -1.8998    0.0000 O   0  0  0  0  0  0  0  0  0  0  0  0
    0.8697   -1.4771    0.0000 C   0  0  0  0  0  0  0  0  0  0  0  0
    3.2310   -4.7518    0.0000 C   0  0  0  0  0  0  0  0  0  0  0  0
   -3.1436   -1.8998    0.0000 C   0  0  0  0  0  0  0  0  0  0  0  0
    1.5791   -4.7518    0.0000 C   0  0  0  0  0  0  0  0  0  0  0  0
   -3.5615   -4.0425    0.0000 N   0  0  0  0  0  0  0  0  0  0  0  0
    2.8181   -5.4661    0.0000 C   0  0  0  0  0  0  0  0  0  0  0  0
    1.9920   -5.4661    0.0000 C   0  0  0  0  0  0  0  0  0  0  0  0
   -1.9046   -4.0425    0.0000 O   0  0  0  0  0  0  0  0  0  0  0  0
   -0.3693   -3.6198    0.0000 O   0  0  0  0  0  0  0  0  0  0  0  0
   -0.3693   -0.7629    0.0000 N   0  0  0  0  0  0  0  0  0  0  0  0
    2.1086   -2.2010    0.0000 N   0  0  0  0  0  0  0  0  0  0  0  0
    3.9405   -4.3340    0.0000 C   0  0  0  0  0  0  0  0  0  0  0  0
   -4.2903   -2.2059    0.0000 O   0  0  0  0  0  0  0  0  0  0  0  0
    3.9307   -3.5032    0.0000 N   0  0  0  0  0  0  0  0  0  0  0  0
    0.7531   -4.7518    0.0000 N   0  0  0  0  0  0  0  0  0  0  0  0
   -4.2903   -3.0222    0.0000 C   0  0  0  0  0  0  0  0  0  0  0  0
   -4.3825   -4.0425    0.0000 C   0  0  0  0  0  0  0  0  0  0  0  0
    4.6449   -3.0805    0.0000 C   0  0  0  0  0  0  0  0  0  0  0  0
    4.6595   -4.7373    0.0000 C   0  0  0  0  0  0  0  0  0  0  0  0
    0.8649   -3.7364    0.0000 H   0  0  0  0  0  0  0  0  0  0  0  0
   -1.2001   -3.0318    0.0000 H   0  0  0  0  0  0  0  0  0  0  0  0
    3.9405   -5.1649    0.0000 H   0  0  0  0  0  0  0  0  0  0  0  0
   12.4238   -2.9056    0.0000 C   0  0  0  0  0  0  0  0  0  0  0  0
   11.1848   -2.1913    0.0000 C   0  0  0  0  0  0  0  0  0  0  0  0
   11.5977   -2.9056    0.0000 C   0  0  0  0  0  0  0  0  0  0  0  0
    9.2364   -3.3283    0.0000 C   0  0  0  0  0  0  0  0  0  0  0  0
    9.6445   -2.6140    0.0000 C   0  0  0  0  0  0  0  0  0  0  0  0
    8.4055   -3.3283    0.0000 C   0  0  0  0  0  0  0  0  0  0  0  0
   13.5462   -4.0376    0.0000 C   0  0  0  0  0  0  0  0  0  0  0  0
   10.3588   -2.2010    0.0000 O   0  0  0  0  0  0  0  0  0  0  0  0
   13.1380   -3.3234    0.0000 O   0  0  0  0  0  0  0  0  0  0  0  0
   14.3672   -4.0376    0.0000 O   0  0  0  0  0  0  0  0  0  0  0  0
    7.9926   -2.6140    0.0000 C   0  0  0  0  0  0  0  0  0  0  0  0
   12.8367   -2.1913    0.0000 C   0  0  0  0  0  0  0  0  0  0  0  0
   11.5977   -1.4771    0.0000 C   0  0  0  0  0  0  0  0  0  0  0  0
    9.2364   -1.8998    0.0000 O   0  0  0  0  0  0  0  0  0  0  0  0
   12.4238   -1.4771    0.0000 C   0  0  0  0  0  0  0  0  0  0  0  0
   14.7851   -4.7518    0.0000 C   0  0  0  0  0  0  0  0  0  0  0  0
    8.4055   -1.8998    0.0000 C   0  0  0  0  0  0  0  0  0  0  0  0
   13.1282   -4.7518    0.0000 C   0  0  0  0  0  0  0  0  0  0  0  0
    7.9974   -4.0425    0.0000 N   0  0  0  0  0  0  0  0  0  0  0  0
   14.3672   -5.4661    0.0000 C   0  0  0  0  0  0  0  0  0  0  0  0
   13.5462   -5.4661    0.0000 C   0  0  0  0  0  0  0  0  0  0  0  0
    9.6445   -4.0425    0.0000 O   0  0  0  0  0  0  0  0  0  0  0  0
   11.1848   -3.6198    0.0000 O   0  0  0  0  0  0  0  0  0  0  0  0
   11.1848   -0.7629    0.0000 N   0  0  0  0  0  0  0  0  0  0  0  0
   13.6628   -2.2010    0.0000 N   0  0  0  0  0  0  0  0  0  0  0  0
   15.4896   -4.3340    0.0000 C   0  0  0  0  0  0  0  0  0  0  0  0
    7.2686   -2.2059    0.0000 O   0  0  0  0  0  0  0  0  0  0  0  0
   12.3023   -4.7518    0.0000 N   0  0  0  0  0  0  0  0  0  0  0  0
   15.4896   -3.5032    0.0000 N   0  0  0  0  0  0  0  0  0  0  0  0
    7.2686   -3.0222    0.0000 C   0  0  0  0  0  0  0  0  0  0  0  0
    7.1666   -4.0425    0.0000 C   0  0  0  0  0  0  0  0  0  0  0  0
   16.2136   -4.7373    0.0000 C   0  0  0  0  0  0  0  0  0  0  0  0
   10.3588   -3.0318    0.0000 H   0  0  0  0  0  0  0  0  0  0  0  0
   12.4140   -3.7364    0.0000 H   0  0  0  0  0  0  0  0  0  0  0  0
   15.4896   -5.1649    0.0000 H   0  0  0  0  0  0  0  0  0  0  0  0
  2  3  1  0
  3  1  1  0
  4  5  1  0
  5  7  1  0
  6  4  1  0
  2  7  1  1
  8  1  1  0
  9  8  1  1
 10 16  1  0
 11  1  1  0
 12 15  1  0
 13  9  1  0
 14  5  1  0
 15 11  1  0
 16 14  1  0
 17  9  1  0
  6 18  1  1
  4 19  1  6
  3 20  1  6
 21 17  1  0
 11 22  1  6
 12 23  1  6
 24 13  1  0
 10 25  1  1
 17 26  1  1
 27 21  1  0
 28 30  1  0
 29 10  1  0
 30 24  1  0
 31 18  1  0
  5 32  1  1
 24 33  1  1
  1 34  1  6
 12  2  1  0
 27 24  1  0
  6 10  1  0
 45 61  1  1
 52 63  1  1
 64 45  1  0
 65 53  1  0
 66 62  1  0
 67 60  1  0
 35 68  1  6
 39 69  1  1
 50 70  1  1
 36 47  1  0
 55 54  1  0
 40 45  1  0
 36 37  1  0
 37 35  1  0
 38 39  1  0
 39 42  1  0
 40 38  1  0
 41 43  1  1
 36 42  1  1
 43 35  1  0
 44 41  1  0
 45 51  1  0
 46 35  1  0
 47 49  1  0
 48 39  1  0
 49 46  1  0
 50 44  1  0
 51 48  1  0
 52 41  1  0
 40 53  1  1
 54 50  1  0
 55 52  1  0
 38 56  1  6
 37 57  1  6
 47 58  1  6
 46 59  1  6
 60 50  1  0
 60 62  1  0
 72 73  1  0
 73 71  1  0
 74 75  1  0
 75 78  1  0
 76 74  1  0
 77 79  1  1
 72 78  1  1
 79 71  1  0
 80 77  1  0
 81 87  1  0
 82 71  1  0
 83 85  1  0
 84 75  1  0
 85 82  1  0
 86 80  1  0
 87 84  1  0
 88 77  1  0
 76 89  1  1
 90 91  1  0
 91 88  1  0
 74 92  1  6
 73 93  1  6
 83 94  1  6
 82 95  1  6
 96 86  1  0
 81 97  1  1
 88 98  1  1
100 81  1  0
101 89  1  0
102 96  1  0
 75103  1  1
 71104  1  6
 86105  1  1
 83 72  1  0
 90 86  1  0
 76 81  1  0
 96 99  1  0
M  END

> <chembl_id>
CHEMBL3039597

> <chembl_pref_name>
GENTAMICIN

$$$$

     RDKit          2D

 40 43  0  0  0  0  0  0  0  0999 V2000
    2.9831   -8.9048    0.0000 C   0  0  0  0  0  0  0  0  0  0  0  0
    3.6952   -8.4965    0.0000 C   0  0  0  0  0  0  0  0  0  0  0  0
    2.2710   -8.4965    0.0000 C   0  0  0  0  0  0  0  0  0  0  0  0
    2.2710   -7.6714    0.0000 C   0  0  0  0  0  0  0  0  0  0  0  0
    1.5604   -7.2611    0.0000 C   0  0  0  0  0  0  0  0  0  0  0  0
    0.8453   -7.6714    0.0000 C   0  0  0  0  0  0  0  0  0  0  0  0
    0.8453   -8.4965    0.0000 C   0  0  0  0  0  0  0  0  0  0  0  0
    1.5604   -8.9112    0.0000 C   0  0  0  0  0  0  0  0  0  0  0  0
    1.5616   -9.7363    0.0000 C   0  0  0  0  0  0  0  0  0  0  0  0
    0.1303   -8.9082    0.0000 O   0  0  0  0  0  0  0  0  0  0  0  0
    2.2669   -6.8464    0.0000 C   0  0  0  0  0  0  0  0  0  0  0  0
    2.9752   -8.0798    0.0000 H   0  0  0  0  0  0  0  0  0  0  0  0
    2.9831   -7.2547    0.0000 C   0  0  0  0  0  0  0  0  0  0  0  0
    3.6934   -7.6744    0.0000 C   0  0  0  0  0  0  0  0  0  0  0  0
    3.7084   -6.0273    0.0000 C   0  0  0  0  0  0  0  0  0  0  0  0
    2.9874   -6.4320    0.0000 C   0  0  0  0  0  0  0  0  0  0  0  0
    4.4186   -6.4471    0.0000 C   0  0  0  0  0  0  0  0  0  0  0  0
    4.4126   -7.2675    0.0000 C   0  0  0  0  0  0  0  0  0  0  0  0
    5.1911   -7.5268    0.0000 C   0  0  0  0  0  0  0  0  0  0  0  0
    5.6770   -6.8671    0.0000 C   0  0  0  0  0  0  0  0  0  0  0  0
    5.2003   -6.1993    0.0000 C   0  0  0  0  0  0  0  0  0  0  0  0
    5.6183   -5.4881    0.0000 C   0  0  0  0  0  0  0  0  0  0  0  0
    6.4434   -5.4945    0.0000 C   0  0  0  0  0  0  0  0  0  0  0  0
    6.8614   -4.7831    0.0000 O   0  0  0  0  0  0  0  0  0  0  0  0
    6.8503   -6.2121    0.0000 O   0  0  0  0  0  0  0  0  0  0  0  0
    5.2113   -4.7702    0.0000 C   0  0  0  0  0  0  0  0  0  0  0  0
    5.6293   -4.0590    0.0000 C   0  0  0  0  0  0  0  0  0  0  0  0
    5.2224   -3.3413    0.0000 C   0  0  0  0  0  0  0  0  0  0  0  0
    5.6404   -2.6300    0.0000 C   0  0  0  0  0  0  0  0  0  0  0  0
    5.2335   -1.9123    0.0000 C   0  0  0  0  0  0  0  0  0  0  0  0
    6.4655   -2.6364    0.0000 C   0  0  0  0  0  0  0  0  0  0  0  0
    4.4128   -5.6213    0.0000 H   0  0  0  0  0  0  0  0  0  0  0  0
    2.2766   -6.0132    0.0000 O   0  0  0  0  0  0  0  0  0  0  0  0
    3.6878   -6.8464    0.0000 C   0  0  0  0  0  0  0  0  0  0  0  0
    2.2669   -9.3216    0.0000 H   0  0  0  0  0  0  0  0  0  0  0  0
    4.4045   -8.0923    0.0000 C   0  0  0  0  0  0  0  0  0  0  0  0
    6.5021   -6.8732    0.0000 O   0  0  0  0  0  0  0  0  0  0  0  0
    6.9093   -7.5907    0.0000 C   0  0  0  0  0  0  0  0  0  0  0  0
    7.7342   -7.5968    0.0000 C   0  0  0  0  0  0  0  0  0  0  0  0
    6.4915   -8.3022    0.0000 O   0  0  0  0  0  0  0  0  0  0  0  0
 18 19  1  0
 19 20  1  0
 20 21  1  0
 21 17  1  0
  2 14  1  0
  8  9  1  6
  3  4  1  0
  7 10  1  6
 21 22  2  0
  4 11  1  1
 22 23  1  0
 23 24  1  0
 13 12  1  1
 23 25  2  0
 13 14  1  0
 22 26  1  0
 26 27  1  0
  4 13  1  0
 27 28  1  0
  3  1  1  0
 28 29  2  0
  1  2  1  0
 29 30  1  0
 13 16  1  0
 29 31  1  0
 14 18  1  0
 17 32  1  6
 17 15  1  0
 16 33  1  6
 15 16  1  0
 14 34  1  6
 17 18  1  0
  3 35  1  6
  3  8  1  0
 18 36  1  1
  4  5  1  0
 20 37  1  1
 37 38  1  0
  5  6  1  0
 38 39  1  0
  6  7  1  0
 38 40  2  0
  7  8  1  0
M  END

> <chembl_id>
CHEMBL374975

> <chembl_pref_name>
FUSIDIC ACID

$$$$

     RDKit          2D

 34 37  0  0  0  0  0  0  0  0999 V2000
    5.2792   -6.0042    0.0000 C   0  0  0  0  0  0  0  0  0  0  0  0
    4.0500   -6.0042    0.0000 C   0  0  0  0  0  0  0  0  0  0  0  0
    6.5125   -6.0042    0.0000 C   0  0  0  0  0  0  0  0  0  0  0  0
    4.6667   -6.3667    0.0000 C   0  0  0  0  0  0  0  0  0  0  0  0
    5.8917   -6.3667    0.0000 C   0  0  0  0  0  0  0  0  0  0  0  0
    3.4292   -6.3667    0.0000 C   0  0  0  0  0  0  0  0  0  0  0  0
    5.2792   -5.3000    0.0000 C   0  0  0  0  0  0  0  0  0  0  0  0
    6.5125   -5.3000    0.0000 C   0  0  0  0  0  0  0  0  0  0  0  0
    2.8167   -6.0042    0.0000 C   0  0  0  0  0  0  0  0  0  0  0  0
    2.8167   -5.3000    0.0000 C   0  0  0  0  0  0  0  0  0  0  0  0
    4.0500   -5.3000    0.0000 C   0  0  0  0  0  0  0  0  0  0  0  0
    3.4292   -4.9417    0.0000 C   0  0  0  0  0  0  0  0  0  0  0  0
    5.8917   -4.9417    0.0000 C   0  0  0  0  0  0  0  0  0  0  0  0
    4.6667   -4.9417    0.0000 C   0  0  0  0  0  0  0  0  0  0  0  0
    7.1292   -6.3667    0.0000 C   0  0  0  0  0  0  0  0  0  0  0  0
    2.2042   -4.9417    0.0000 C   0  0  0  0  0  0  0  0  0  0  0  0
    2.2042   -6.3667    0.0000 C   0  0  0  0  0  0  0  0  0  0  0  0
    5.8917   -7.0792    0.0000 O   0  0  0  0  0  0  0  0  0  0  0  0
    3.4292   -7.0792    0.0000 O   0  0  0  0  0  0  0  0  0  0  0  0
    5.8917   -4.2375    0.0000 N   0  0  0  0  0  0  0  0  0  0  0  0
    5.2792   -6.7167    0.0000 O   0  0  0  0  0  0  0  0  0  0  0  0
    7.1292   -7.0792    0.0000 O   0  0  0  0  0  0  0  0  0  0  0  0
    4.6667   -7.0792    0.0000 O   0  0  0  0  0  0  0  0  0  0  0  0
    7.1292   -4.9417    0.0000 O   0  0  0  0  0  0  0  0  0  0  0  0
    1.5875   -5.3000    0.0000 C   0  0  0  0  0  0  0  0  0  0  0  0
    1.5875   -6.0042    0.0000 C   0  0  0  0  0  0  0  0  0  0  0  0
    3.4292   -4.2375    0.0000 O   0  0  0  0  0  0  0  0  0  0  0  0
    7.7417   -6.0042    0.0000 N   0  0  0  0  0  0  0  0  0  0  0  0
    2.2042   -4.2375    0.0000 Cl  0  0  0  0  0  0  0  0  0  0  0  0
    2.2042   -7.0792    0.0000 O   0  0  0  0  0  0  0  0  0  0  0  0
    6.5125   -3.8792    0.0000 C   0  0  0  0  0  0  0  0  0  0  0  0
    5.2792   -3.8792    0.0000 C   0  0  0  0  0  0  0  0  0  0  0  0
    4.0500   -4.5917    0.0000 H   0  0  0  0  0  0  0  0  0  0  0  0
    5.2792   -4.5917    0.0000 H   0  0  0  0  0  0  0  0  0  0  0  0
  2  4  2  0
  3  5  1  0
  4  1  1  0
  5  1  1  0
  6  2  1  0
  7  1  1  0
  8 13  1  0
  9  6  1  0
 10 12  1  0
 11 14  1  0
 12 11  1  0
 13  7  1  0
 14  7  1  0
 15  3  1  0
 16 10  1  0
 17  9  1  0
 18  5  2  0
 19  6  2  0
 13 20  1  6
  1 21  1  6
 22 15  2  0
 23  4  1  0
 24  8  1  0
 25 16  2  0
 26 17  2  0
 12 27  1  1
 28 15  1  0
 29 16  1  0
 30 17  1  0
 31 20  1  0
 32 20  1  0
 11 33  1  6
  7 34  1  6
 11  2  1  0
  8  3  2  0
  9 10  2  0
 26 25  1  0
M  END

> <chembl_id>
CHEMBL1591

> <chembl_pref_name>
DEMECLOCYCLINE

$$$$

     RDKit          2D

 37 40  0  0  1  0  0  0  0  0999 V2000
    1.1542   -5.4625    0.0000 C   0  0  0  0  0  0  0  0  0  0  0  0
    1.8625   -6.1708    0.0000 N   0  0  0  0  0  0  0  0  0  0  0  0
    1.1542   -6.1750    0.0000 C   0  0  0  0  0  0  0  0  0  0  0  0
    1.8625   -5.4625    0.0000 C   0  0  0  0  0  0  0  0  0  0  0  0
    0.5375   -5.1042    0.0000 N   0  0  0  0  0  0  0  0  0  0  0  0
    4.9167   -6.5417    0.0000 C   0  0  0  0  0  0  0  0  0  0  0  0
    2.4667   -6.5208    0.0000 C   0  0  0  0  0  0  0  0  0  0  0  0
    5.1333   -7.2125    0.0000 N   0  0  0  0  0  0  0  0  0  0  0  0
    5.4875   -6.1208    0.0000 N   0  0  0  0  0  0  0  0  0  0  0  0
   -0.0792   -5.4625    0.0000 C   0  0  0  0  0  0  0  0  0  0  0  0
    6.0625   -6.5417    0.0000 N   0  0  0  0  0  0  0  0  0  0  0  0
    5.8125   -7.1792    0.0000 N   0  0  0  0  0  0  0  0  0  0  0  0
    3.0792   -6.1750    0.0000 C   0  0  0  0  0  0  0  0  0  0  0  0
    2.4750   -5.1125    0.0000 O   0  0  0  0  0  0  0  0  0  0  0  0
   -0.6917   -5.1083    0.0000 C   0  0  0  0  0  0  0  0  0  0  0  0
    2.4625   -7.2292    0.0000 C   0  0  0  0  0  0  0  0  0  0  0  0
   -0.6917   -4.4000    0.0000 C   0  0  0  0  0  0  0  0  0  0  0  0
    4.3042   -6.1833    0.0000 S   0  0  0  0  0  0  0  0  0  0  0  0
    3.0833   -5.4708    0.0000 C   0  0  0  0  0  0  0  0  0  0  0  0
    0.6583   -6.6750    0.0000 O   0  0  0  0  0  0  0  0  0  0  0  0
    3.6875   -6.5333    0.0000 C   0  0  0  0  0  0  0  0  0  0  0  0
   -1.3042   -5.4625    0.0000 C   0  0  0  0  0  0  0  0  0  0  0  0
    1.1500   -4.7542    0.0000 O   0  0  0  0  0  0  0  0  0  0  0  0
   -0.0792   -6.1708    0.0000 O   0  0  0  0  0  0  0  0  0  0  0  0
    3.0708   -7.5875    0.0000 O   0  0  0  0  0  0  0  0  0  0  0  0
   -0.0792   -4.0458    0.0000 O   0  0  0  0  0  0  0  0  0  0  0  0
    1.8458   -7.5792    0.0000 O   0  0  0  0  0  0  0  0  0  0  0  0
   -1.3042   -4.0458    0.0000 O   0  0  0  0  0  0  0  0  0  0  0  0
   -1.3042   -6.1625    0.0000 C   0  0  0  0  0  0  0  0  0  0  0  0
   -1.9167   -5.1042    0.0000 C   0  0  0  0  0  0  0  0  0  0  0  0
    4.7208   -7.7875    0.0000 C   0  0  0  0  0  0  0  0  0  0  0  0
   -2.5292   -6.1667    0.0000 C   0  0  0  0  0  0  0  0  0  0  0  0
   -1.9125   -6.5208    0.0000 C   0  0  0  0  0  0  0  0  0  0  0  0
   -2.5292   -5.4583    0.0000 C   0  0  0  0  0  0  0  0  0  0  0  0
   -3.1417   -6.5208    0.0000 O   0  0  0  0  0  0  0  0  0  0  0  0
    1.7583   -4.3917    0.0000 C   0  0  0  0  0  0  0  0  0  0  0  0
    1.8542   -4.7542    0.0000 H   0  0  0  0  0  0  0  0  0  0  0  0
  2  3  1  0
  3  1  1  0
  4  1  1  0
  1  5  1  1
  6 18  1  0
  7  2  1  0
  8  6  1  0
  9  6  2  0
 10  5  1  0
 11  9  1  0
 12  8  1  0
 13  7  2  0
 14  4  1  0
 15 10  1  0
 16  7  1  0
 17 15  1  0
 18 21  1  0
 19 14  1  0
 20  3  2  0
 21 13  1  0
 22 15  1  0
 23  1  1  0
 24 10  2  0
 25 16  1  0
 26 17  1  0
 27 16  2  0
 28 17  2  0
 29 22  1  0
 30 22  2  0
 31  8  1  0
 32 33  1  0
 33 29  2  0
 34 30  1  0
 35 32  1  0
 36 23  1  0
  4 37  1  6
  2  4  1  0
 19 13  1  0
 32 34  2  0
 11 12  2  0
M  END

> <chembl_id>
CHEMBL74632

> <chembl_pref_name>
MOXALACTAM

$$$$

     RDKit          2D

 34 37  0  0  1  0  0  0  0  0999 V2000
    1.1917    1.3833    0.0000 N   0  0  0  0  0  0  0  0  0  0  0  0
    0.4375    1.8208    0.0000 C   0  0  0  0  0  0  0  0  0  0  0  0
    0.7375    0.6708    0.0000 C   0  0  0  0  0  0  0  0  0  0  0  0
    0.0292    1.1000    0.0000 C   0  0  0  0  0  0  0  0  0  0  0  0
    2.0792    1.3958    0.0000 C   0  0  0  0  0  0  0  0  0  0  0  0
   -2.1000   -1.7917    0.0000 C   0  0  0  0  0  0  0  0  0  0  0  0
   -3.3083   -0.7750    0.0000 C   0  0  0  0  0  0  0  0  0  0  0  0
   -3.0083   -1.6667    0.0000 C   0  0  0  0  0  0  0  0  0  0  0  0
    2.9292   -0.8542    0.0000 S   0  0  0  0  0  0  0  0  0  0  0  0
    1.2125   -0.1042    0.0000 S   0  0  0  0  0  0  0  0  0  0  0  0
   -1.8000   -0.2292    0.0000 N   0  0  0  0  0  0  0  0  0  0  0  0
    2.5167    0.6458    0.0000 C   0  0  0  0  0  0  0  0  0  0  0  0
    3.8167   -0.7417    0.0000 C   0  0  0  0  0  0  0  0  0  0  0  0
    4.1625   -1.6042    0.0000 N   0  0  0  0  0  0  0  0  0  0  0  0
    3.4542   -2.2042    0.0000 N   0  0  0  0  0  0  0  0  0  0  0  0
   -1.5250   -1.1042    0.0000 C   0  0  0  0  0  0  0  0  0  0  0  0
   -2.7000   -0.0542    0.0000 C   0  0  0  0  0  0  0  0  0  0  0  0
   -0.6958    1.9333    0.0000 N   0  0  0  0  0  0  0  0  0  0  0  0
    2.6542   -1.6667    0.0000 C   0  0  0  0  0  0  0  0  0  0  0  0
    2.4250    2.0083    0.0000 C   0  0  0  0  0  0  0  0  0  0  0  0
   -1.6583    1.3333    0.0000 C   0  0  0  0  0  0  0  0  0  0  0  0
    2.1042   -0.1042    0.0000 C   0  0  0  0  0  0  0  0  0  0  0  0
    0.4292    2.6583    0.0000 O   0  0  0  0  0  0  0  0  0  0  0  0
    4.2792    0.0083    0.0000 S   0  0  0  0  0  0  0  0  0  0  0  0
    3.4917    0.8833    0.0000 C   0  0  0  0  0  0  0  0  0  0  0  0
   -1.2083    0.4625    0.0000 C   0  0  0  0  0  0  0  0  0  0  0  0
   -3.5833   -2.3792    0.0000 O   0  0  0  0  0  0  0  0  0  0  0  0
    3.5917    1.7958    0.0000 O   0  0  0  0  0  0  0  0  0  0  0  0
   -2.5583    1.6750    0.0000 O   0  0  0  0  0  0  0  0  0  0  0  0
   -4.2333   -0.6250    0.0000 Cl  0  0  0  0  0  0  0  0  0  0  0  0
   -1.8000   -2.6667    0.0000 Cl  0  0  0  0  0  0  0  0  0  0  0  0
    1.8042    2.7333    0.0000 O   0  0  0  0  0  0  0  0  0  0  0  0
    1.7917   -2.0000    0.0000 C   0  0  0  0  0  0  0  0  0  0  0  0
    0.0322   -0.0381    0.0000 H   0  0  0  0  0  0  0  0  0  0  0  0
  2  1  1  0
  3  1  1  0
  4  3  1  0
  5  1  1  0
  6 16  2  0
  7 17  2  0
  8  7  1  0
  9 13  1  0
 10  3  1  0
 11 26  1  0
 12  5  2  0
 13 24  1  0
 14 13  2  0
 15 14  1  0
 16 11  1  0
 17 11  1  0
  4 18  1  6
 19  9  1  0
 20  5  1  0
 21 18  1  0
 22 12  1  0
 23  2  2  0
 24 25  1  0
 25 12  1  0
 26 21  1  0
 27  8  2  0
 28 20  2  0
 29 21  2  0
 30  7  1  0
 31  6  1  0
 32 20  1  0
 33 19  1  0
  2  4  1  0
 10 22  1  0
 19 15  2  0
  6  8  1  0
  3 34  1  1
M  END

> <chembl_id>
CHEMBL2107636

> <chembl_pref_name>
CEFAZEDONE

$$$$

     RDKit          2D

128140  0  0  1  0  0  0  0  0999 V2000
    2.1792   -4.1125    0.0000 C   0  0  0  0  0  0  0  0  0  0  0  0
    8.8750   -4.0625    0.0000 C   0  0  0  0  0  0  0  0  0  0  0  0
    2.7917   -4.5917    0.0000 N   0  0  0  0  0  0  0  0  0  0  0  0
    3.2167    0.6958    0.0000 C   0  0  0  0  0  0  0  0  0  0  0  0
    3.5792    1.3250    0.0000 C   0  0  0  0  0  0  0  0  0  0  0  0
    1.5667   -5.3750    0.0000 N   0  0  0  0  0  0  0  0  0  0  0  0
    1.5667   -4.5250    0.0000 C   0  0  0  0  0  0  0  0  0  0  0  0
    4.4542   -4.1125    0.0000 N   0  0  0  0  0  0  0  0  0  0  0  0
    6.1167   -4.3750    0.0000 N   0  0  0  0  0  0  0  0  0  0  0  0
    8.3000   -4.3750    0.0000 C   0  0  0  0  0  0  0  0  0  0  0  0
    2.7042   -6.7625    0.0000 C   0  0  0  0  0  0  0  0  0  0  0  0
    3.3417   -4.2292    0.0000 C   0  0  0  0  0  0  0  0  0  0  0  0
    2.1042   -6.4000    0.0000 C   0  0  0  0  0  0  0  0  0  0  0  0
    4.9917   -4.4292    0.0000 C   0  0  0  0  0  0  0  0  0  0  0  0
    3.3125   -6.4000    0.0000 C   0  0  0  0  0  0  0  0  0  0  0  0
    5.5417   -1.7625    0.0000 C   0  0  0  0  0  0  0  0  0  0  0  0
    2.0917   -5.7167    0.0000 C   0  0  0  0  0  0  0  0  0  0  0  0
    2.5750    0.6958    0.0000 C   0  0  0  0  0  0  0  0  0  0  0  0
    7.7542   -4.0042    0.0000 N   0  0  0  0  0  0  0  0  0  0  0  0
    5.5417   -4.1125    0.0000 C   0  0  0  0  0  0  0  0  0  0  0  0
    9.4042   -4.4000    0.0000 N   0  0  0  0  0  0  0  0  0  0  0  0
    6.1167   -2.1125    0.0000 C   0  0  0  0  0  0  0  0  0  0  0  0
    4.9542   -2.1125    0.0000 C   0  0  0  0  0  0  0  0  0  0  0  0
    6.6542   -3.9875    0.0000 C   0  0  0  0  0  0  0  0  0  0  0  0
    3.9042   -4.4875    0.0000 C   0  0  0  0  0  0  0  0  0  0  0  0
    3.2625    1.8208    0.0000 O   0  0  0  0  0  0  0  0  0  0  0  0
    2.1792   -3.2500    0.0000 C   0  0  0  0  0  0  0  0  0  0  0  0
    1.2417   -1.6000    0.0000 C   0  0  0  0  0  0  0  0  0  0  0  0
    5.5417   -1.1375    0.0000 O   0  0  0  0  0  0  0  0  0  0  0  0
   -0.2583   -3.9375    0.0000 C   0  0  0  0  0  0  0  0  0  0  0  0
    5.5417   -3.0875    0.0000 C   0  0  0  0  0  0  0  0  0  0  0  0
    2.2750    1.2500    0.0000 C   0  0  0  0  0  0  0  0  0  0  0  0
    6.6250   -1.7125    0.0000 O   0  0  0  0  0  0  0  0  0  0  0  0
    4.4042   -1.8042    0.0000 O   0  0  0  0  0  0  0  0  0  0  0  0
    7.2000   -4.3167    0.0000 C   0  0  0  0  0  0  0  0  0  0  0  0
    2.7042   -7.4375    0.0000 C   0  0  0  0  0  0  0  0  0  0  0  0
    2.3167   -0.9750    0.0000 C   0  0  0  0  0  0  0  0  0  0  0  0
    9.9917   -4.1125    0.0000 C   0  0  0  0  0  0  0  0  0  0  0  0
    0.8042   -3.3250    0.0000 C   0  0  0  0  0  0  0  0  0  0  0  0
    2.6042    1.8208    0.0000 C   0  0  0  0  0  0  0  0  0  0  0  0
    8.8750   -3.0542    0.0000 C   0  0  0  0  0  0  0  0  0  0  0  0
    1.9542   -1.6000    0.0000 C   0  0  0  0  0  0  0  0  0  0  0  0
    0.4542   -3.9375    0.0000 C   0  0  0  0  0  0  0  0  0  0  0  0
    3.3125   -5.7792    0.0000 C   0  0  0  0  0  0  0  0  0  0  0  0
    1.9542   -0.3625    0.0000 O   0  0  0  0  0  0  0  0  0  0  0  0
    0.4542   -2.7125    0.0000 O   0  0  0  0  0  0  0  0  0  0  0  0
    3.9042   -5.4250    0.0000 C   0  0  0  0  0  0  0  0  0  0  0  0
    0.8750   -0.9750    0.0000 C   0  0  0  0  0  0  0  0  0  0  0  0
   -0.6125   -3.3250    0.0000 C   0  0  0  0  0  0  0  0  0  0  0  0
    2.7750   -2.8500    0.0000 C   0  0  0  0  0  0  0  0  0  0  0  0
    7.2292   -4.9417    0.0000 C   0  0  0  0  0  0  0  0  0  0  0  0
    8.3292   -2.7250    0.0000 C   0  0  0  0  0  0  0  0  0  0  0  0
    3.5417    0.1250    0.0000 O   0  0  0  0  0  0  0  0  0  0  0  0
    2.5417   -5.2917    0.0000 C   0  0  0  0  0  0  0  0  0  0  0  0
    4.9542   -2.7500    0.0000 C   0  0  0  0  0  0  0  0  0  0  0  0
    6.1167   -2.7500    0.0000 C   0  0  0  0  0  0  0  0  0  0  0  0
    7.1750   -2.0750    0.0000 C   0  0  0  0  0  0  0  0  0  0  0  0
    3.8917   -2.1625    0.0000 C   0  0  0  0  0  0  0  0  0  0  0  0
    1.2417   -0.3625    0.0000 C   0  0  0  0  0  0  0  0  0  0  0  0
   -0.2583   -2.7125    0.0000 C   0  0  0  0  0  0  0  0  0  0  0  0
    1.5042   -2.8875    0.0000 O   0  0  0  0  0  0  0  0  0  0  0  0
    2.1042   -7.7875    0.0000 C   0  0  0  0  0  0  0  0  0  0  0  0
    0.7042   -2.0750    0.0000 N   0  0  0  0  0  0  0  0  0  0  0  0
    3.8917   -2.8000    0.0000 C   0  0  0  0  0  0  0  0  0  0  0  0
    7.7667   -1.7500    0.0000 C   0  0  0  0  0  0  0  0  0  0  0  0
    6.5667   -5.3000    0.0000 C   0  0  0  0  0  0  0  0  0  0  0  0
    3.3417   -3.1250    0.0000 C   0  0  0  0  0  0  0  0  0  0  0  0
    8.3292   -2.0792    0.0000 C   0  0  0  0  0  0  0  0  0  0  0  0
    3.8750   -6.7625    0.0000 C   0  0  0  0  0  0  0  0  0  0  0  0
    1.5167   -6.7625    0.0000 C   0  0  0  0  0  0  0  0  0  0  0  0
   10.5375   -4.4292    0.0000 C   0  0  0  0  0  0  0  0  0  0  0  0
    1.0417   -4.2125    0.0000 O   0  0  0  0  0  0  0  0  0  0  0  0
    8.3000   -4.9542    0.0000 O   0  0  0  0  0  0  0  0  0  0  0  0
    3.3417   -3.6250    0.0000 O   0  0  0  0  0  0  0  0  0  0  0  0
    4.9792   -5.1125    0.0000 O   0  0  0  0  0  0  0  0  0  0  0  0
    1.5167   -7.4375    0.0000 C   0  0  0  0  0  0  0  0  0  0  0  0
    6.6542   -3.4125    0.0000 O   0  0  0  0  0  0  0  0  0  0  0  0
   -1.8583   -1.0042    0.0000 C   0  0  0  0  0  0  0  0  0  0  0  0
   -2.4708   -0.6542    0.0000 C   0  0  0  0  0  0  0  0  0  0  0  0
    9.9917   -3.4625    0.0000 O   0  0  0  0  0  0  0  0  0  0  0  0
    2.7750   -2.2042    0.0000 C   0  0  0  0  0  0  0  0  0  0  0  0
    4.4917   -5.7375    0.0000 C   0  0  0  0  0  0  0  0  0  0  0  0
    7.7542   -3.0542    0.0000 C   0  0  0  0  0  0  0  0  0  0  0  0
    2.3417   -4.6792    0.0000 O   0  0  0  0  0  0  0  0  0  0  0  0
    7.1750   -2.6875    0.0000 C   0  0  0  0  0  0  0  0  0  0  0  0
    3.3000   -1.8625    0.0000 C   0  0  0  0  0  0  0  0  0  0  0  0
    6.5750   -6.0125    0.0000 O   0  0  0  0  0  0  0  0  0  0  0  0
   10.5375   -4.9750    0.0000 C   0  0  0  0  0  0  0  0  0  0  0  0
   -0.8708   -4.2875    0.0000 N   0  0  0  0  0  0  0  0  0  0  0  0
    4.4917   -6.4292    0.0000 C   0  0  0  0  0  0  0  0  0  0  0  0
    2.1917    0.1250    0.0000 O   0  0  0  0  0  0  0  0  0  0  0  0
   -1.8500   -1.7250    0.0000 C   0  0  0  0  0  0  0  0  0  0  0  0
   -1.2375   -0.6542    0.0000 C   0  0  0  0  0  0  0  0  0  0  0  0
   -2.4708    0.0500    0.0000 C   0  0  0  0  0  0  0  0  0  0  0  0
   -3.0750   -1.0167    0.0000 C   0  0  0  0  0  0  0  0  0  0  0  0
    1.5750    1.2500    0.0000 O   0  0  0  0  0  0  0  0  0  0  0  0
    3.3125   -7.7625    0.0000 O   0  0  0  0  0  0  0  0  0  0  0  0
   11.1167   -4.1500    0.0000 N   0  0  0  0  0  0  0  0  0  0  0  0
    5.9500   -4.9500    0.0000 N   0  0  0  0  0  0  0  0  0  0  0  0
   -0.0083   -2.0750    0.0000 C   0  0  0  0  0  0  0  0  0  0  0  0
   -1.3208   -3.3250    0.0000 O   0  0  0  0  0  0  0  0  0  0  0  0
    0.1625   -0.9667    0.0000 O   0  0  0  0  0  0  0  0  0  0  0  0
    4.5000   -3.1375    0.0000 Cl  0  0  0  0  0  0  0  0  0  0  0  0
    7.7667   -1.1375    0.0000 Cl  0  0  0  0  0  0  0  0  0  0  0  0
    9.5000   -2.7000    0.0000 O   0  0  0  0  0  0  0  0  0  0  0  0
    3.1875   -5.4375    0.0000 O   0  0  0  0  0  0  0  0  0  0  0  0
   -3.6958    0.0458    0.0000 C   0  0  0  0  0  0  0  0  0  0  0  0
   -0.6208   -1.7167    0.0000 C   0  0  0  0  0  0  0  0  0  0  0  0
   -3.0833    0.4083    0.0000 C   0  0  0  0  0  0  0  0  0  0  0  0
   -3.6958   -0.6667    0.0000 C   0  0  0  0  0  0  0  0  0  0  0  0
   -1.2333   -2.0750    0.0000 C   0  0  0  0  0  0  0  0  0  0  0  0
   -0.6208   -1.0042    0.0000 C   0  0  0  0  0  0  0  0  0  0  0  0
    3.8750   -7.4375    0.0000 O   0  0  0  0  0  0  0  0  0  0  0  0
    2.2750    2.4000    0.0000 C   0  0  0  0  0  0  0  0  0  0  0  0
   -4.3125    0.3958    0.0000 Cl  0  0  0  0  0  0  0  0  0  0  0  0
    0.9292   -7.7375    0.0000 O   0  0  0  0  0  0  0  0  0  0  0  0
    1.4167   -2.2792    0.0000 C   0  0  0  0  0  0  0  0  0  0  0  0
   -0.2583   -4.6417    0.0000 C   0  0  0  0  0  0  0  0  0  0  0  0
    1.6875    2.4000    0.0000 O   0  0  0  0  0  0  0  0  0  0  0  0
    0.8792    0.2708    0.0000 C   0  0  0  0  0  0  0  0  0  0  0  0
   -0.6083   -2.0917    0.0000 C   0  0  0  0  0  0  0  0  0  0  0  0
    9.9167   -5.3417    0.0000 C   0  0  0  0  0  0  0  0  0  0  0  0
   11.7042   -4.5417    0.0000 C   0  0  0  0  0  0  0  0  0  0  0  0
    9.9167   -6.0542    0.0000 C   0  0  0  0  0  0  0  0  0  0  0  0
    9.2917   -4.9750    0.0000 C   0  0  0  0  0  0  0  0  0  0  0  0
    4.9917   -3.6792    0.0000 H   0  0  0  0  0  0  0  0  0  0  0  0
    1.6792   -3.7917    0.0000 H   0  0  0  0  0  0  0  0  0  0  0  0
    4.4042   -4.7625    0.0000 H   0  0  0  0  0  0  0  0  0  0  0  0
  2 10  1  0
  3  1  1  0
  4  5  1  0
  5 29  1  1
  6  7  1  0
  7  1  1  0
  8 25  1  0
  9 20  1  0
 10 19  1  0
 11 13  1  0
 12  3  1  0
 13 17  1  0
 14  8  1  0
 15 44  1  0
 16 23  1  0
 17  6  1  0
 18  4  1  0
 19 35  1  0
 20 14  1  0
  2 21  1  1
 22 56  1  0
 23 34  1  0
 24  9  1  0
 25 12  1  0
 26  5  1  0
 27  1  1  0
 28 42  1  0
 29 16  1  0
 30 43  1  0
 31 20  1  0
 32 18  1  0
 33 22  1  0
 34 58  1  0
 35 24  1  0
 36 11  2  0
 37 53  1  1
 38 21  1  0
 39 61  1  1
 40 26  1  0
 41  2  1  0
 42 37  1  0
 43 39  1  0
 44 47  2  0
 45 37  1  0
 46 39  1  0
 47 25  1  0
 48 59  1  0
 49 60  1  0
 50 27  1  0
 35 51  1  1
 52 83  1  0
  4 53  1  6
 17 54  1  6
 55 31  1  0
 56 31  2  0
 57 33  1  0
 58 86  2  0
 59 45  1  0
 60 46  1  0
 27 61  1  6
 62 76  2  0
 63 28  1  0
 64 67  2  0
 65 57  2  0
 66 51  1  0
 67 50  1  0
 68 65  1  0
 69 90  1  0
 70 13  2  0
 71 38  1  0
 72  7  2  0
 73 10  2  0
 74 12  2  0
 75 14  2  0
 76 70  1  0
 77 24  2  0
 78 92  1  0
 79 78  1  0
 80 38  2  0
 81 50  2  0
 82 47  1  0
 83 85  2  0
 84 54  2  0
 85 57  1  0
 86 81  1  0
 87 66  2  0
 71 88  1  6
 30 89  1  6
 90 82  2  0
 18 91  1  1
 92111  2  0
 93112  1  0
 94 79  2  0
 95 79  1  0
 32 96  1  6
 97 36  1  0
 98 71  1  0
 99 66  1  0
100 63  1  0
 49101  1  1
 48102  1  1
103 64  1  0
104 65  1  0
 41105  1  1
106 54  1  0
107109  2  0
108100  1  0
109 94  1  0
110 95  2  0
111108  1  0
112108  2  0
113 69  1  0
 40114  1  1
115107  1  0
116 76  1  0
 28117  1  1
 30118  1  0
119114  1  0
 59120  1  6
 60121  1  6
122 88  1  0
123 98  1  0
124122  1  0
125122  1  0
 20126  1  6
  1127  1  1
 25128  1  1
 58 64  1  0
 15 11  1  0
 49 30  1  0
 69 15  2  0
 62 36  1  0
 23 55  2  0
 16 22  2  0
 40 32  1  0
 52 68  2  0
 52 41  1  0
 28 48  1  0
 93 78  2  0
110107  1  0
M  END

> <chembl_id>
CHEMBL1688530

> <chembl_pref_name>
ORITAVANCIN

$$$$

     RDKit          2D

 20 21  0  0  0  0  0  0  0  0999 V2000
   -0.4750   -3.1875    0.0000 N   0  0  0  0  0  0  0  0  0  0  0  0
    0.0417   -2.8875    0.0000 C   0  0  0  0  0  0  0  0  0  0  0  0
    0.5625   -3.1875    0.0000 C   0  0  0  0  0  0  0  0  0  0  0  0
   -0.4750   -3.7917    0.0000 C   0  0  0  0  0  0  0  0  0  0  0  0
    2.6542   -3.7792    0.0000 C   0  0  0  0  0  0  0  0  0  0  0  0
    2.6500   -3.1667    0.0000 C   0  0  0  0  0  0  0  0  0  0  0  0
    2.1292   -4.0792    0.0000 C   0  0  0  0  0  0  0  0  0  0  0  0
    0.0417   -4.0917    0.0000 N   0  0  0  0  0  0  0  0  0  0  0  0
    1.6042   -3.1792    0.0000 C   0  0  0  0  0  0  0  0  0  0  0  0
    1.0792   -2.8792    0.0000 C   0  0  0  0  0  0  0  0  0  0  0  0
    0.5625   -3.7917    0.0000 C   0  0  0  0  0  0  0  0  0  0  0  0
    1.6042   -3.7792    0.0000 C   0  0  0  0  0  0  0  0  0  0  0  0
    2.1250   -2.8750    0.0000 C   0  0  0  0  0  0  0  0  0  0  0  0
    0.0292   -2.2875    0.0000 N   0  0  0  0  0  0  0  0  0  0  0  0
   -0.9958   -4.0917    0.0000 N   0  0  0  0  0  0  0  0  0  0  0  0
    3.1750   -4.0792    0.0000 Br  0  0  0  0  0  0  0  0  0  0  0  0
    3.1667   -2.8667    0.0000 O   0  0  0  0  0  0  0  0  0  0  0  0
    2.1292   -4.6792    0.0000 O   0  0  0  0  0  0  0  0  0  0  0  0
    3.1625   -2.2667    0.0000 C   0  0  0  0  0  0  0  0  0  0  0  0
    1.6125   -4.9792    0.0000 C   0  0  0  0  0  0  0  0  0  0  0  0
  2  1  2  0
  3  2  1  0
  4  1  1  0
  5  6  1  0
  6 13  2  0
  7 12  1  0
  8  4  2  0
  9 10  1  0
 10  3  1  0
 11  8  1  0
 12  9  2  0
 13  9  1  0
 14  2  1  0
 15  4  1  0
 16  5  1  0
 17  6  1  0
 18  7  1  0
 19 17  1  0
 20 18  1  0
 11  3  2  0
  5  7  2  0
M  END

> <chembl_id>
CHEMBL31891

> <chembl_pref_name>
BRODIMOPRIM

$$$$

     RDKit          2D

 19 20  0  0  0  0  0  0  0  0999 V2000
    9.8861  -17.9833    0.0000 C   0  0  0  0  0  0  0  0  0  0  0  0
    9.8849  -18.8107    0.0000 C   0  0  0  0  0  0  0  0  0  0  0  0
   10.5997  -19.2235    0.0000 C   0  0  0  0  0  0  0  0  0  0  0  0
   11.3162  -18.8102    0.0000 C   0  0  0  0  0  0  0  0  0  0  0  0
   11.3133  -17.9797    0.0000 C   0  0  0  0  0  0  0  0  0  0  0  0
   10.5979  -17.5705    0.0000 C   0  0  0  0  0  0  0  0  0  0  0  0
   10.5995  -20.0485    0.0000 N   0  0  0  0  0  0  0  0  0  0  0  0
   10.5955  -16.7455    0.0000 S   0  0  0  0  0  0  0  0  0  0  0  0
   10.5875  -15.9167    0.0000 N   0  0  0  0  0  0  0  0  0  0  0  0
   11.4204  -16.7403    0.0000 O   0  0  0  0  0  0  0  0  0  0  0  0
    9.7705  -16.7546    0.0000 O   0  0  0  0  0  0  0  0  0  0  0  0
   11.2980  -15.4973    0.0000 C   0  0  0  0  0  0  0  0  0  0  0  0
   12.0136  -15.9070    0.0000 N   0  0  0  0  0  0  0  0  0  0  0  0
   12.7236  -15.4884    0.0000 N   0  0  0  0  0  0  0  0  0  0  0  0
   12.7161  -14.6625    0.0000 C   0  0  0  0  0  0  0  0  0  0  0  0
   11.9927  -14.2571    0.0000 C   0  0  0  0  0  0  0  0  0  0  0  0
   11.2857  -14.6781    0.0000 C   0  0  0  0  0  0  0  0  0  0  0  0
   13.4260  -14.2423    0.0000 O   0  0  0  0  0  0  0  0  0  0  0  0
   14.1450  -14.6469    0.0000 C   0  0  0  0  0  0  0  0  0  0  0  0
  4  5  1  0
  8 10  2  0
  2  3  1  0
  8 11  2  0
  5  6  2  0
  9 12  1  0
  6  1  1  0
 12 13  2  0
  1  2  2  0
 13 14  1  0
  3  7  1  0
 14 15  2  0
  3  4  2  0
 15 16  1  0
  6  8  1  0
 16 17  2  0
 17 12  1  0
 15 18  1  0
  8  9  1  0
 18 19  1  0
M  END

> <chembl_id>
CHEMBL268869

> <chembl_pref_name>
SULFAMETHOXYPYRIDAZINE

$$$$

     RDKit          2D

 35 37  0  0  0  0  0  0  0  0999 V2000
    8.8917  -20.4667    0.0000 O   0  0  0  0  0  0  0  0  0  0  0  0
    5.3667  -19.3625    0.0000 C   0  0  0  0  0  0  0  0  0  0  0  0
    4.1375  -19.3625    0.0000 C   0  0  0  0  0  0  0  0  0  0  0  0
    5.3667  -18.6417    0.0000 C   0  0  0  0  0  0  0  0  0  0  0  0
    6.6125  -19.3625    0.0000 C   0  0  0  0  0  0  0  0  0  0  0  0
    4.7500  -19.7167    0.0000 C   0  0  0  0  0  0  0  0  0  0  0  0
    5.9917  -19.7167    0.0000 C   0  0  0  0  0  0  0  0  0  0  0  0
    6.6125  -18.6417    0.0000 C   0  0  0  0  0  0  0  0  0  0  0  0
    3.5125  -19.7167    0.0000 C   0  0  0  0  0  0  0  0  0  0  0  0
    4.1375  -18.6417    0.0000 C   0  0  0  0  0  0  0  0  0  0  0  0
    5.9917  -18.2875    0.0000 C   0  0  0  0  0  0  0  0  0  0  0  0
    2.8917  -19.3625    0.0000 C   0  0  0  0  0  0  0  0  0  0  0  0
    4.7500  -18.2875    0.0000 C   0  0  0  0  0  0  0  0  0  0  0  0
    2.8917  -18.6417    0.0000 C   0  0  0  0  0  0  0  0  0  0  0  0
    3.5125  -18.2875    0.0000 C   0  0  0  0  0  0  0  0  0  0  0  0
    7.2292  -19.7167    0.0000 C   0  0  0  0  0  0  0  0  0  0  0  0
    5.9917  -17.5750    0.0000 N   0  0  0  0  0  0  0  0  0  0  0  0
    5.9917  -20.4417    0.0000 O   0  0  0  0  0  0  0  0  0  0  0  0
    3.5125  -20.4417    0.0000 O   0  0  0  0  0  0  0  0  0  0  0  0
    2.2750  -19.7167    0.0000 C   0  0  0  0  0  0  0  0  0  0  0  0
    5.3667  -20.0417    0.0000 O   0  0  0  0  0  0  0  0  0  0  0  0
    7.2167  -20.4292    0.0000 O   0  0  0  0  0  0  0  0  0  0  0  0
    4.7500  -20.4417    0.0000 O   0  0  0  0  0  0  0  0  0  0  0  0
    7.2292  -18.2875    0.0000 O   0  0  0  0  0  0  0  0  0  0  0  0
    4.7500  -17.5750    0.0000 O   0  0  0  0  0  0  0  0  0  0  0  0
    7.8625  -19.3875    0.0000 N   0  0  0  0  0  0  0  0  0  0  0  0
    2.2750  -18.2875    0.0000 C   0  0  0  0  0  0  0  0  0  0  0  0
    3.5125  -17.5750    0.0000 C   0  0  0  0  0  0  0  0  0  0  0  0
    2.2750  -20.4417    0.0000 O   0  0  0  0  0  0  0  0  0  0  0  0
    1.6542  -18.6417    0.0000 C   0  0  0  0  0  0  0  0  0  0  0  0
    1.6542  -19.3625    0.0000 C   0  0  0  0  0  0  0  0  0  0  0  0
    6.6000  -17.2292    0.0000 C   0  0  0  0  0  0  0  0  0  0  0  0
    5.3750  -17.2167    0.0000 C   0  0  0  0  0  0  0  0  0  0  0  0
    4.1375  -18.0000    0.0000 H   0  0  0  0  0  0  0  0  0  0  0  0
    5.3667  -17.9667    0.0000 H   0  0  0  0  0  0  0  0  0  0  0  0
  3  6  2  0
  4  2  1  0
  5  7  1  0
  6  2  1  0
  7  2  1  0
  8  5  2  0
  9  3  1  0
 10  3  1  0
 11  4  1  0
 12  9  1  0
 13  4  1  0
 14 15  1  0
 15 10  1  0
 16  5  1  0
 11 17  1  6
 18  7  2  0
 19  9  2  0
 20 12  1  0
  2 21  1  6
 22 16  2  0
 23  6  1  0
 24  8  1  0
 13 25  1  6
 26 16  1  0
 27 14  1  0
 15 28  1  6
 29 20  1  0
 30 27  2  0
 31 20  2  0
 32 17  1  0
 33 17  1  0
 10 34  1  6
  4 35  1  6
 13 10  1  0
 11  8  1  0
 14 12  2  0
 30 31  1  0
M  END

> <chembl_id>
CHEMBL1200699

> <chembl_pref_name>
DOXYCYCLINE

$$$$

     RDKit          2D

 25 27  0  0  1  0  0  0  0  0999 V2000
    2.0042    0.5833    0.0000 N   0  0  0  0  0  0  0  0  0  0  0  0
    1.9917   -0.4292    0.0000 C   0  0  0  0  0  0  0  0  0  0  0  0
    0.9917    0.5833    0.0000 C   0  0  0  0  0  0  0  0  0  0  0  0
    0.9917   -0.4375    0.0000 C   0  0  0  0  0  0  0  0  0  0  0  0
    2.9542    0.9000    0.0000 C   0  0  0  0  0  0  0  0  0  0  0  0
    2.9542   -0.7375    0.0000 S   0  0  0  0  0  0  0  0  0  0  0  0
    3.5542    0.0833    0.0000 C   0  0  0  0  0  0  0  0  0  0  0  0
    0.2792   -1.1375    0.0000 N   0  0  0  0  0  0  0  0  0  0  0  0
   -0.7000   -0.8500    0.0000 C   0  0  0  0  0  0  0  0  0  0  0  0
    3.2667    1.8708    0.0000 C   0  0  0  0  0  0  0  0  0  0  0  0
   -1.4208   -1.5542    0.0000 C   0  0  0  0  0  0  0  0  0  0  0  0
   -2.4000   -1.3000    0.0000 C   0  0  0  0  0  0  0  0  0  0  0  0
    0.2750    1.2958    0.0000 O   0  0  0  0  0  0  0  0  0  0  0  0
   -0.9458    0.1125    0.0000 O   0  0  0  0  0  0  0  0  0  0  0  0
    2.6000    2.6208    0.0000 O   0  0  0  0  0  0  0  0  0  0  0  0
   -3.1250   -1.9875    0.0000 C   0  0  0  0  0  0  0  0  0  0  0  0
   -3.6208   -0.0292    0.0000 C   0  0  0  0  0  0  0  0  0  0  0  0
   -4.3458   -0.7375    0.0000 C   0  0  0  0  0  0  0  0  0  0  0  0
   -1.1833   -2.5417    0.0000 N   0  0  0  0  0  0  0  0  0  0  0  0
    4.2667    2.0833    0.0000 O   0  0  0  0  0  0  0  0  0  0  0  0
    4.3042   -0.5917    0.0000 C   0  0  0  0  0  0  0  0  0  0  0  0
    4.3042    0.7583    0.0000 C   0  0  0  0  0  0  0  0  0  0  0  0
   -2.6458   -0.3167    0.0000 C   0  0  0  0  0  0  0  0  0  0  0  0
   -4.1083   -1.7250    0.0000 C   0  0  0  0  0  0  0  0  0  0  0  0
    2.0250   -1.4417    0.0000 H   0  0  0  0  0  0  0  0  0  0  0  0
  2  1  1  0
  3  1  1  0
  4  3  1  0
  5  1  1  0
  6  2  1  0
  7  5  1  0
  4  8  1  6
  9  8  1  0
  5 10  1  1
 11  9  1  0
 12 11  1  0
 13  3  2  0
 14  9  2  0
 15 10  2  0
 16 12  2  0
 17 23  1  0
 18 17  2  0
 11 19  1  6
 20 10  1  0
 21  7  1  0
 22  7  1  0
 23 12  1  0
 24 16  1  0
  2 25  1  1
  6  7  1  0
  2  4  1  0
 24 18  1  0
M  END

> <chembl_id>
CHEMBL2104266

> <chembl_pref_name>
EPICILLIN

$$$$

     RDKit          2D

 19 21  0  0  0  0  0  0  0  0999 V2000
   -2.3757   -8.7997    0.0000 C   0  0  0  0  0  0  0  0  0  0  0  0
   -0.9478   -8.7956    0.0000 C   0  0  0  0  0  0  0  0  0  0  0  0
   -1.6660   -8.3869    0.0000 C   0  0  0  0  0  0  0  0  0  0  0  0
   -2.3738   -9.6270    0.0000 C   0  0  0  0  0  0  0  0  0  0  0  0
   -3.0826  -10.0330    0.0000 C   0  0  0  0  0  0  0  0  0  0  0  0
   -3.0877  -10.8536    0.0000 C   0  0  0  0  0  0  0  0  0  0  0  0
   -2.3779  -11.2668    0.0000 C   0  0  0  0  0  0  0  0  0  0  0  0
   -0.9446   -9.6267    0.0000 C   0  0  0  0  0  0  0  0  0  0  0  0
   -1.6635  -10.0349    0.0000 C   0  0  0  0  0  0  0  0  0  0  0  0
   -1.6694  -10.8570    0.0000 N   0  0  0  0  0  0  0  0  0  0  0  0
   -0.9581  -11.2771    0.0000 C   0  0  0  0  0  0  0  0  0  0  0  0
   -0.2392  -10.8688    0.0000 C   0  0  0  0  0  0  0  0  0  0  0  0
   -0.2317  -10.0405    0.0000 C   0  0  0  0  0  0  0  0  0  0  0  0
   -0.9651  -12.1021    0.0000 C   0  0  0  0  0  0  0  0  0  0  0  0
   -3.7951   -9.6171    0.0000 O   0  0  0  0  0  0  0  0  0  0  0  0
   -3.8055  -11.2651    0.0000 C   0  0  0  0  0  0  0  0  0  0  0  0
   -4.5180  -10.8492    0.0000 O   0  0  0  0  0  0  0  0  0  0  0  0
   -3.8095  -12.0901    0.0000 O   0  0  0  0  0  0  0  0  0  0  0  0
   -1.6698   -7.5619    0.0000 F   0  0  0  0  0  0  0  0  0  0  0  0
  9  4  1  0
  8  2  1  0
  1  4  2  0
  2  3  2  0
  8 13  1  0
  9 10  1  0
 10 11  1  0
 11 12  1  0
 12 13  1  0
  4  5  1  0
 11 14  1  0
  5  6  1  0
  5 15  2  0
  6  7  2  0
  7 10  1  0
  8  9  2  0
 16 17  1  0
 16 18  2  0
  6 16  1  0
  3  1  1  0
  3 19  1  0
M  END

> <chembl_id>
CHEMBL370252

> <chembl_pref_name>
FLUMEQUINE

$$$$

     RDKit          2D

 43 47  0  0  1  0  0  0  0  0999 V2000
   11.3527   -1.4631    0.0000 S   0  0  0  0  0  0  0  0  0  0  0  0
    7.3969   -1.4089    0.0000 S   0  0  0  0  0  0  0  0  0  0  0  0
   11.4204   -0.5961    0.0000 O   0  0  0  0  0  0  0  0  0  0  0  0
   10.6753   -0.9619    0.0000 O   0  0  0  0  0  0  0  0  0  0  0  0
    5.2157   -3.1024    0.0000 O   0  0  0  0  0  0  0  0  0  0  0  0
   13.5474   -3.1295    0.0000 O   0  0  0  0  0  0  0  0  0  0  0  0
   10.3096   -3.7662    0.0000 O   0  0  0  0  0  0  0  0  0  0  0  0
    8.5077   -3.7255    0.0000 O   0  0  0  0  0  0  0  0  0  0  0  0
   11.6507   -4.1861    0.0000 O   0  0  0  0  0  0  0  0  0  0  0  0
    7.1124   -4.1861    0.0000 O   0  0  0  0  0  0  0  0  0  0  0  0
    4.0507   -0.3522    0.0000 O   0  0  0  0  0  0  0  0  0  0  0  0
    6.6247   -2.5198    0.0000 N   0  0  0  0  0  0  0  0  0  0  0  0
   12.1385   -2.5333    0.0000 N   0  0  0  0  0  0  0  0  0  0  0  0
    4.7551   -1.6664    0.0000 N   0  0  0  0  0  0  0  0  0  0  0  0
    3.3462   -2.4250    0.0000 N   0  0  0  0  0  0  0  0  0  0  0  0
    6.6247   -1.7070    0.0000 C   0  0  0  0  0  0  0  0  0  0  0  0
    5.8253   -1.7070    0.0000 C   0  0  0  0  0  0  0  0  0  0  0  0
   12.1385   -1.7070    0.0000 C   0  0  0  0  0  0  0  0  0  0  0  0
   10.8514   -2.1270    0.0000 C   0  0  0  0  0  0  0  0  0  0  0  0
    5.8253   -2.5198    0.0000 C   0  0  0  0  0  0  0  0  0  0  0  0
   11.3527   -2.7772    0.0000 C   0  0  0  0  0  0  0  0  0  0  0  0
    7.3969   -2.7772    0.0000 C   0  0  0  0  0  0  0  0  0  0  0  0
    7.8981   -2.1134    0.0000 C   0  0  0  0  0  0  0  0  0  0  0  0
   12.9649   -2.5333    0.0000 C   0  0  0  0  0  0  0  0  0  0  0  0
   12.9649   -1.7070    0.0000 C   0  0  0  0  0  0  0  0  0  0  0  0
   11.1089   -3.5630    0.0000 C   0  0  0  0  0  0  0  0  0  0  0  0
    7.6949   -3.5630    0.0000 C   0  0  0  0  0  0  0  0  0  0  0  0
   10.1741   -1.7070    0.0000 C   0  0  0  0  0  0  0  0  0  0  0  0
   10.1741   -2.5333    0.0000 C   0  0  0  0  0  0  0  0  0  0  0  0
    8.6296   -1.7070    0.0000 C   0  0  0  0  0  0  0  0  0  0  0  0
    8.6296   -2.5198    0.0000 C   0  0  0  0  0  0  0  0  0  0  0  0
    4.0507   -1.2057    0.0000 C   0  0  0  0  0  0  0  0  0  0  0  0
    9.3477   -3.2378    0.0000 C   0  0  0  0  0  0  0  0  0  0  0  0
    3.3462   -1.6121    0.0000 C   0  0  0  0  0  0  0  0  0  0  0  0
    2.6282   -1.2057    0.0000 C   0  0  0  0  0  0  0  0  0  0  0  0
    1.9102   -1.6121    0.0000 C   0  0  0  0  0  0  0  0  0  0  0  0
    2.6282   -0.3522    0.0000 C   0  0  0  0  0  0  0  0  0  0  0  0
    1.2057   -1.2057    0.0000 C   0  0  0  0  0  0  0  0  0  0  0  0
    1.9102    0.0000    0.0000 C   0  0  0  0  0  0  0  0  0  0  0  0
    1.2057   -0.3522    0.0000 C   0  0  0  0  0  0  0  0  0  0  0  0
    6.6247   -0.8670    0.0000 H   0  0  0  0  0  0  0  0  0  0  0  0
    5.8253   -0.8670    0.0000 H   0  0  0  0  0  0  0  0  0  0  0  0
   12.1385   -0.8670    0.0000 H   0  0  0  0  0  0  0  0  0  0  0  0
  1  3  2  0
  1  4  2  0
  1 18  1  0
  1 19  1  0
  2 16  1  0
  2 23  1  0
  5 20  2  0
  6 24  2  0
  7 26  1  0
  7 33  1  0
  8 27  1  0
  8 33  1  0
  9 26  2  0
 10 27  2  0
 11 32  2  0
 12 16  1  0
 12 20  1  0
 12 22  1  0
 13 18  1  0
 13 21  1  0
 13 24  1  0
 17 14  1  1
 14 32  1  0
 34 15  1  6
 16 17  1  0
 16 41  1  6
 17 20  1  0
 17 42  1  6
 18 25  1  0
 18 43  1  1
 19 21  1  0
 19 28  1  0
 19 29  1  0
 21 26  1  1
 22 23  1  0
 22 27  1  6
 23 30  1  0
 23 31  1  0
 24 25  1  0
 32 34  1  0
 34 35  1  0
 35 36  2  0
 35 37  1  0
 36 38  1  0
 37 39  2  0
 38 40  2  0
 39 40  1  0
M  END

> <chembl_id>
CHEMBL506110

> <chembl_pref_name>
SULTAMICILLIN

$$$$

     RDKit          2D

 14 14  0  0  0  0  0  0  0  0999 V2000
    0.9042   -0.5125    0.0000 S   0  0  0  0  0  0  0  0  0  0  0  0
    2.1792   -0.5125    0.0000 N   0  0  0  0  0  0  0  0  0  0  0  0
    2.8167    0.8833    0.0000 C   0  0  0  0  0  0  0  0  0  0  0  0
   -0.3333   -0.5125    0.0000 C   0  0  0  0  0  0  0  0  0  0  0  0
    0.9042   -1.7917    0.0000 O   0  0  0  0  0  0  0  0  0  0  0  0
    0.9042    0.7250    0.0000 O   0  0  0  0  0  0  0  0  0  0  0  0
    1.6375    1.9083    0.0000 S   0  0  0  0  0  0  0  0  0  0  0  0
   -0.9583    0.5708    0.0000 C   0  0  0  0  0  0  0  0  0  0  0  0
   -0.9583   -1.6375    0.0000 C   0  0  0  0  0  0  0  0  0  0  0  0
    4.2000    0.8833    0.0000 N   0  0  0  0  0  0  0  0  0  0  0  0
   -2.8583   -0.5125    0.0000 C   0  0  0  0  0  0  0  0  0  0  0  0
   -4.0958   -0.5125    0.0000 N   0  0  0  0  0  0  0  0  0  0  0  0
   -2.1958    0.5708    0.0000 C   0  0  0  0  0  0  0  0  0  0  0  0
   -2.2333   -1.6375    0.0000 C   0  0  0  0  0  0  0  0  0  0  0  0
  2  1  1  0
  3  2  1  0
  4  1  1  0
  5  1  2  0
  6  1  2  0
  7  3  2  0
  8  4  1  0
  9  4  2  0
 10  3  1  0
 11 14  2  0
 12 11  1  0
 13  8  2  0
 14  9  1  0
 13 11  1  0
M  END

> <chembl_id>
CHEMBL2107489

> <chembl_pref_name>
SULFATHIOUREA

$$$$

     RDKit          2D

 60 62  0  0  0  0  0  0  0  0999 V2000
    9.7073   -3.1251    0.0000 C   0  0  0  0  0  0  0  0  0  0  0  0
    7.5623   -4.3361    0.0000 C   0  0  0  0  0  0  0  0  0  0  0  0
    6.1292   -4.3361    0.0000 C   0  0  0  0  0  0  0  0  0  0  0  0
    5.4151   -2.2844    0.0000 C   0  0  0  0  0  0  0  0  0  0  0  0
    6.8386   -4.7493    0.0000 C   0  0  0  0  0  0  0  0  0  0  0  0
    9.7359   -2.3034    0.0000 C   0  0  0  0  0  0  0  0  0  0  0  0
    8.2623   -3.1107    0.0000 C   0  0  0  0  0  0  0  0  0  0  0  0
    7.5528   -3.5145    0.0000 C   0  0  0  0  0  0  0  0  0  0  0  0
    6.1292   -1.0519    0.0000 C   0  0  0  0  0  0  0  0  0  0  0  0
    6.1292   -3.5145    0.0000 O   0  0  0  0  0  0  0  0  0  0  0  0
    6.1292   -1.8711    0.0000 C   0  0  0  0  0  0  0  0  0  0  0  0
    6.8386   -0.6387    0.0000 C   0  0  0  0  0  0  0  0  0  0  0  0
    8.9764   -3.5145    0.0000 O   0  0  0  0  0  0  0  0  0  0  0  0
    9.0337   -6.7986    0.0000 C   0  0  0  0  0  0  0  0  0  0  0  0
   10.4643   -1.9142    0.0000 C   0  0  0  0  0  0  0  0  0  0  0  0
    8.2623   -2.2844    0.0000 C   0  0  0  0  0  0  0  0  0  0  0  0
    8.2837   -5.5757    0.0000 C   0  0  0  0  0  0  0  0  0  0  0  0
    9.0122   -5.9770    0.0000 C   0  0  0  0  0  0  0  0  0  0  0  0
   10.4095   -3.5717    0.0000 O   0  0  0  0  0  0  0  0  0  0  0  0
    7.5766   -6.0057    0.0000 O   0  0  0  0  0  0  0  0  0  0  0  0
    5.4151   -3.1107    0.0000 C   0  0  0  0  0  0  0  0  0  0  0  0
    8.3267   -7.2238    0.0000 C   0  0  0  0  0  0  0  0  0  0  0  0
    8.2623   -4.7493    0.0000 O   0  0  0  0  0  0  0  0  0  0  0  0
    7.6006   -6.8321    0.0000 C   0  0  0  0  0  0  0  0  0  0  0  0
    7.5528   -1.0519    0.0000 C   0  0  0  0  0  0  0  0  0  0  0  0
    7.5528   -1.8711    0.0000 C   0  0  0  0  0  0  0  0  0  0  0  0
   11.1619   -2.3513    0.0000 C   0  0  0  0  0  0  0  0  0  0  0  0
   10.4978   -1.0924    0.0000 N   0  0  0  0  0  0  0  0  0  0  0  0
    5.4151   -4.7493    0.0000 O   0  0  0  0  0  0  0  0  0  0  0  0
   11.1380   -3.1777    0.0000 C   0  0  0  0  0  0  0  0  0  0  0  0
    6.8386    0.1830    0.0000 N   0  0  0  0  0  0  0  0  0  0  0  0
    9.0528   -7.6251    0.0000 O   0  0  0  0  0  0  0  0  0  0  0  0
    4.6937   -2.6880    0.0000 C   0  0  0  0  0  0  0  0  0  0  0  0
    6.8482   -5.5757    0.0000 C   0  0  0  0  0  0  0  0  0  0  0  0
    6.8386   -3.1012    0.0000 C   0  0  0  0  0  0  0  0  0  0  0  0
    5.4151   -0.6387    0.0000 C   0  0  0  0  0  0  0  0  0  0  0  0
    9.7383   -6.3711    0.0000 C   0  0  0  0  0  0  0  0  0  0  0  0
    8.9764   -2.6976    0.0000 C   0  0  0  0  0  0  0  0  0  0  0  0
    4.7009   -3.5239    0.0000 C   0  0  0  0  0  0  0  0  0  0  0  0
    6.9031   -7.2692    0.0000 C   0  0  0  0  0  0  0  0  0  0  0  0
    8.2623   -0.6387    0.0000 C   0  0  0  0  0  0  0  0  0  0  0  0
    9.7861   -0.6553    0.0000 C   0  0  0  0  0  0  0  0  0  0  0  0
   11.2193   -0.7032    0.0000 C   0  0  0  0  0  0  0  0  0  0  0  0
   11.8331   -3.6148    0.0000 C   0  0  0  0  0  0  0  0  0  0  0  0
    9.7717   -8.0192    0.0000 C   0  0  0  0  0  0  0  0  0  0  0  0
    4.7009   -4.3457    0.0000 C   0  0  0  0  0  0  0  0  0  0  0  0
    8.9978   -5.1601    0.0000 H   0  0  0  0  0  0  0  0  0  0  0  0
    9.7024   -3.9515    0.0000 H   0  0  0  0  0  0  0  0  0  0  0  0
    7.5514    0.5962    0.0000 O   0  0  0  0  0  0  0  0  0  0  0  0
    8.2689    0.1830    0.0000 C   0  0  0  0  0  0  0  0  0  0  0  0
    8.9818    0.5962    0.0000 O   0  0  0  0  0  0  0  0  0  0  0  0
    9.6946    0.1830    0.0000 C   0  0  0  0  0  0  0  0  0  0  0  0
   10.4121    0.5962    0.0000 C   0  0  0  0  0  0  0  0  0  0  0  0
   11.1248    0.1830    0.0000 O   0  0  0  0  0  0  0  0  0  0  0  0
   11.8377    0.5962    0.0000 C   0  0  0  0  0  0  0  0  0  0  0  0
    4.8991   -1.6418    0.0000 O   0  0  0  0  0  0  0  0  0  0  0  0
    9.0337   -1.8664    0.0000 O   0  0  0  0  0  0  0  0  0  0  0  0
    8.2598   -1.4531    0.0000 O   0  0  0  0  0  0  0  0  0  0  0  0
    6.8386   -2.2844    0.0000 O   0  0  0  0  0  0  0  0  0  0  0  0
    8.3481   -8.0503    0.0000 O   0  0  0  0  0  0  0  0  0  0  0  0
  6  1  1  0
  7 13  1  6
  8  7  1  0
  9 12  1  0
 10  3  1  0
 11  9  1  0
 12 25  1  0
 13  1  1  0
 14 18  1  0
 15  6  1  0
 16  7  1  0
 17 23  1  0
 18 17  1  0
 19  1  1  0
 20 17  1  0
 21 10  1  0
 22 24  1  0
  2 23  1  6
 24 20  1  0
 25 26  1  0
 26 16  1  0
 27 30  1  0
 15 28  1  1
 29  3  2  0
 30 19  1  0
 31 12  2  0
  4 56  1  1
  6 57  1  6
 16 58  1  1
 11 59  1  1
 14 32  1  1
 22 60  1  1
 33  4  1  0
  5 34  1  1
  8 35  1  6
  9 36  1  1
 37 14  1  0
 38 16  1  0
 21 39  1  6
 24 40  1  6
 25 41  1  6
 42 28  1  0
 43 28  1  0
 30 44  1  1
 45 32  1  0
 46 39  1  0
 17 47  1  6
  1 48  1  6
 27 15  1  0
  4 21  1  0
 22 14  1  0
 31 49  1  0
 49 50  1  0
 50 51  1  0
 51 52  1  0
 52 53  1  0
 53 54  1  0
 54 55  1  0
  2  8  1  0
  3  5  1  0
  4 11  1  0
  5  2  1  0
M  END

> <chembl_id>
CHEMBL1214185

> <chembl_pref_name>
ROXITHROMYCIN

$$$$

     RDKit          2D

 33 36  0  0  1  0  0  0  0  0999 V2000
    0.4250   -0.6750    0.0000 N   0  0  0  0  0  0  0  0  0  0  0  0
   -0.4000   -0.6750    0.0000 C   0  0  0  0  0  0  0  0  0  0  0  0
   -0.4000    0.1583    0.0000 C   0  0  0  0  0  0  0  0  0  0  0  0
    0.4250    0.1583    0.0000 C   0  0  0  0  0  0  0  0  0  0  0  0
    1.1417   -1.0792    0.0000 C   0  0  0  0  0  0  0  0  0  0  0  0
    1.8542   -0.6750    0.0000 C   0  0  0  0  0  0  0  0  0  0  0  0
   -3.1458    0.8833    0.0000 C   0  0  0  0  0  0  0  0  0  0  0  0
    3.2875   -0.6667    0.0000 N   0  0  0  0  0  0  0  0  0  0  0  0
    3.2792    0.1583    0.0000 N   0  0  0  0  0  0  0  0  0  0  0  0
   -2.3500    1.1000    0.0000 C   0  0  0  0  0  0  0  0  0  0  0  0
    4.0750   -0.9167    0.0000 N   0  0  0  0  0  0  0  0  0  0  0  0
   -3.5208    0.1625    0.0000 N   0  0  0  0  0  0  0  0  0  0  0  0
    4.0667    0.4083    0.0000 N   0  0  0  0  0  0  0  0  0  0  0  0
   -0.9833    0.7333    0.0000 N   0  0  0  0  0  0  0  0  0  0  0  0
   -1.7625    0.5208    0.0000 C   0  0  0  0  0  0  0  0  0  0  0  0
    1.1417    0.5708    0.0000 S   0  0  0  0  0  0  0  0  0  0  0  0
    4.5542   -0.2542    0.0000 C   0  0  0  0  0  0  0  0  0  0  0  0
   -4.3458    0.2875    0.0000 C   0  0  0  0  0  0  0  0  0  0  0  0
   -3.7333    1.4708    0.0000 C   0  0  0  0  0  0  0  0  0  0  0  0
   -4.4583    1.0958    0.0000 S   0  0  0  0  0  0  0  0  0  0  0  0
    1.1417   -1.9042    0.0000 C   0  0  0  0  0  0  0  0  0  0  0  0
    2.5792   -1.0792    0.0000 C   0  0  0  0  0  0  0  0  0  0  0  0
    1.8542    0.1583    0.0000 C   0  0  0  0  0  0  0  0  0  0  0  0
   -2.1458    1.8958    0.0000 N   0  0  0  0  0  0  0  0  0  0  0  0
   -0.9750   -1.2500    0.0000 O   0  0  0  0  0  0  0  0  0  0  0  0
   -1.9708   -0.2667    0.0000 O   0  0  0  0  0  0  0  0  0  0  0  0
    0.4292   -2.3167    0.0000 O   0  0  0  0  0  0  0  0  0  0  0  0
   -4.9375   -0.2667    0.0000 N   0  0  0  0  0  0  0  0  0  0  0  0
    1.8542   -2.3167    0.0000 O   0  0  0  0  0  0  0  0  0  0  0  0
   -1.3458    2.1083    0.0000 O   0  0  0  0  0  0  0  0  0  0  0  0
    5.3792   -0.2417    0.0000 C   0  0  0  0  0  0  0  0  0  0  0  0
   -1.1375    2.9000    0.0000 C   0  0  0  0  0  0  0  0  0  0  0  0
    0.1668    1.1244    0.0000 H   0  0  0  0  0  0  0  0  0  0  0  0
  2  1  1  0
  3  4  1  0
  4  1  1  0
  5  1  1  0
  6  5  2  0
  7 10  1  0
  8 22  1  0
  9  8  1  0
 10 15  1  0
 11  8  1  0
 12  7  1  0
 13  9  2  0
  3 14  1  1
 15 14  1  0
  4 16  1  0
 17 11  2  0
 18 12  2  0
 19  7  2  0
 20 19  1  0
 21  5  1  0
 22  6  1  0
 23  6  1  0
 24 10  2  0
 25  2  2  0
 26 15  2  0
 27 21  2  0
 28 18  1  0
 29 21  1  0
 30 24  1  0
 31 17  1  0
 32 30  1  0
  2  3  1  0
 16 23  1  0
 17 13  1  0
 18 20  1  0
  4 33  1  6
M  END

> <chembl_id>
CHEMBL2105953

> <chembl_pref_name>
CEFTERAM

$$$$

     RDKit          2D

 22 24  0  0  1  0  0  0  0  0999 V2000
    2.8542   -3.0292    0.0000 N   0  0  0  0  0  0  0  0  0  0  0  0
    3.6417   -3.2792    0.0000 C   0  0  0  0  0  0  0  0  0  0  0  0
    4.1250   -2.6125    0.0000 C   0  0  0  0  0  0  0  0  0  0  0  0
    2.8500   -2.2042    0.0000 C   0  0  0  0  0  0  0  0  0  0  0  0
    2.0250   -3.0292    0.0000 C   0  0  0  0  0  0  0  0  0  0  0  0
    3.6292   -1.9417    0.0000 S   0  0  0  0  0  0  0  0  0  0  0  0
    2.0250   -2.2042    0.0000 C   0  0  0  0  0  0  0  0  0  0  0  0
    3.9000   -4.0667    0.0000 C   0  0  0  0  0  0  0  0  0  0  0  0
    4.9500   -2.6042    0.0000 C   0  0  0  0  0  0  0  0  0  0  0  0
    1.4417   -3.6167    0.0000 O   0  0  0  0  0  0  0  0  0  0  0  0
    3.3542   -4.6792    0.0000 O   0  0  0  0  0  0  0  0  0  0  0  0
    1.4417   -1.6167    0.0000 C   0  0  0  0  0  0  0  0  0  0  0  0
    4.7042   -4.2292    0.0000 O   0  0  0  0  0  0  0  0  0  0  0  0
    5.4375   -3.2667    0.0000 O   0  0  0  0  0  0  0  0  0  0  0  0
    1.6542   -0.8250    0.0000 O   0  0  0  0  0  0  0  0  0  0  0  0
    6.2167   -3.0125    0.0000 C   0  0  0  0  0  0  0  0  0  0  0  0
    5.4292   -1.9375    0.0000 C   0  0  0  0  0  0  0  0  0  0  0  0
    0.6417   -1.8375    0.0000 C   0  0  0  0  0  0  0  0  0  0  0  0
    6.2167   -2.1875    0.0000 C   0  0  0  0  0  0  0  0  0  0  0  0
    2.0167   -1.3792    0.0000 H   0  0  0  0  0  0  0  0  0  0  0  0
    2.8417   -1.3792    0.0000 H   0  0  0  0  0  0  0  0  0  0  0  0
    4.7292   -3.4042    0.0000 H   0  0  0  0  0  0  0  0  0  0  0  0
  2  1  1  0
  3  2  2  0
  4  1  1  0
  5  1  1  0
  6  4  1  0
  7  5  1  0
  8  2  1  0
  9  3  1  0
 10  5  2  0
 11  8  1  0
 12  7  1  0
 13  8  2  0
 14  9  1  0
 12 15  1  1
 16 14  1  0
 17  9  1  0
 18 12  1  0
 19 17  1  0
  7 20  1  1
  4 21  1  6
  9 22  1  6
  4  7  1  0
  3  6  1  0
 16 19  1  0
M  END

> <chembl_id>
CHEMBL556262

> <chembl_pref_name>
FAROPENEM

$$$$

     RDKit          2D

 29 31  0  0  0  0  0  0  0  0999 V2000
   12.6882  -16.2079    0.0000 N   0  0  0  0  0  0  0  0  0  0  0  0
   11.8676  -16.2079    0.0000 C   0  0  0  0  0  0  0  0  0  0  0  0
   11.8676  -15.3873    0.0000 C   0  0  0  0  0  0  0  0  0  0  0  0
   12.6974  -15.3873    0.0000 C   0  0  0  0  0  0  0  0  0  0  0  0
   13.3950  -16.6229    0.0000 C   0  0  0  0  0  0  0  0  0  0  0  0
    9.0044  -15.3645    0.0000 C   0  0  0  0  0  0  0  0  0  0  0  0
    9.7202  -14.9633    0.0000 C   0  0  0  0  0  0  0  0  0  0  0  0
    8.2156  -15.1183    0.0000 N   0  0  0  0  0  0  0  0  0  0  0  0
   11.1518  -14.9679    0.0000 N   0  0  0  0  0  0  0  0  0  0  0  0
   10.4314  -15.3782    0.0000 C   0  0  0  0  0  0  0  0  0  0  0  0
   13.4086  -14.9770    0.0000 S   0  0  0  0  0  0  0  0  0  0  0  0
   14.1107  -16.2125    0.0000 C   0  0  0  0  0  0  0  0  0  0  0  0
    7.7324  -15.7885    0.0000 C   0  0  0  0  0  0  0  0  0  0  0  0
    9.0089  -16.1943    0.0000 C   0  0  0  0  0  0  0  0  0  0  0  0
    8.2248  -16.4541    0.0000 S   0  0  0  0  0  0  0  0  0  0  0  0
   13.3858  -17.4526    0.0000 C   0  0  0  0  0  0  0  0  0  0  0  0
   14.1199  -15.3919    0.0000 C   0  0  0  0  0  0  0  0  0  0  0  0
    9.7202  -14.1335    0.0000 N   0  0  0  0  0  0  0  0  0  0  0  0
   11.1518  -16.6183    0.0000 O   0  0  0  0  0  0  0  0  0  0  0  0
   10.4269  -16.1989    0.0000 O   0  0  0  0  0  0  0  0  0  0  0  0
   12.6745  -17.8538    0.0000 O   0  0  0  0  0  0  0  0  0  0  0  0
    6.9026  -15.7885    0.0000 N   0  0  0  0  0  0  0  0  0  0  0  0
   14.0970  -17.8675    0.0000 O   0  0  0  0  0  0  0  0  0  0  0  0
   14.8219  -16.6365    0.0000 C   0  0  0  0  0  0  0  0  0  0  0  0
   10.4314  -13.7232    0.0000 O   0  0  0  0  0  0  0  0  0  0  0  0
   15.5331  -16.2216    0.0000 O   0  0  0  0  0  0  0  0  0  0  0  0
   10.4314  -12.8980    0.0000 C   0  0  0  0  0  0  0  0  0  0  0  0
   16.2444  -16.6319    0.0000 C   0  0  0  0  0  0  0  0  0  0  0  0
   12.6928  -14.5575    0.0000 H   0  0  0  0  0  0  0  0  0  0  0  0
  2  1  1  0
  3  4  1  0
  4  1  1  0
  5  1  1  0
  6  7  1  0
  7 10  1  0
  8  6  1  0
  3  9  1  1
 10  9  1  0
  4 11  1  0
 12  5  2  0
 13  8  2  0
 14  6  2  0
 15 14  1  0
 16  5  1  0
 17 12  1  0
 18  7  2  0
 19  2  2  0
 20 10  2  0
 21 16  2  0
 22 13  1  0
 23 16  1  0
 24 12  1  0
 25 18  1  0
 26 24  1  0
 27 25  1  0
 28 26  1  0
  3  2  1  0
 17 11  1  0
 13 15  1  0
  4 29  1  6
M  END

> <chembl_id>
CHEMBL1672

> <chembl_pref_name>
CEFPODOXIME

$$$$

     RDKit          2D

 23 25  0  0  0  0  0  0  0  0999 V2000
    4.8190    0.8795    0.0000 N   0  0  0  0  0  0  0  0  0  0  0  0
    4.8190    1.7041    0.0000 C   0  0  0  0  0  0  0  0  0  0  0  0
    3.9944    0.8795    0.0000 C   0  0  0  0  0  0  0  0  0  0  0  0
    3.9944    1.7041    0.0000 C   0  0  0  0  0  0  0  0  0  0  0  0
    5.6023    0.6184    0.0000 C   0  0  0  0  0  0  0  0  0  0  0  0
    5.6023    1.9560    0.0000 S   0  0  0  0  0  0  0  0  0  0  0  0
    6.0833    1.2918    0.0000 C   0  0  0  0  0  0  0  0  0  0  0  0
    3.2753    2.1163    0.0000 N   0  0  0  0  0  0  0  0  0  0  0  0
    6.0145   -0.0916    0.0000 C   0  0  0  0  0  0  0  0  0  0  0  0
    2.5607    1.7041    0.0000 C   0  0  0  0  0  0  0  0  0  0  0  0
    1.8369    2.1163    0.0000 N   0  0  0  0  0  0  0  0  0  0  0  0
    3.2753    0.4672    0.0000 O   0  0  0  0  0  0  0  0  0  0  0  0
    5.5978   -0.8062    0.0000 O   0  0  0  0  0  0  0  0  0  0  0  0
    6.8391   -0.0916    0.0000 O   0  0  0  0  0  0  0  0  0  0  0  0
    6.7979    1.7041    0.0000 C   0  0  0  0  0  0  0  0  0  0  0  0
    6.7979    0.8795    0.0000 C   0  0  0  0  0  0  0  0  0  0  0  0
    1.8461    2.9409    0.0000 C   0  0  0  0  0  0  0  0  0  0  0  0
    1.1910    1.5987    0.0000 C   0  0  0  0  0  0  0  0  0  0  0  0
    1.2002    3.4631    0.0000 C   0  0  0  0  0  0  0  0  0  0  0  0
    0.3802    1.7911    0.0000 C   0  0  0  0  0  0  0  0  0  0  0  0
    0.0229    2.5332    0.0000 C   0  0  0  0  0  0  0  0  0  0  0  0
    0.3894    3.2844    0.0000 C   0  0  0  0  0  0  0  0  0  0  0  0
    4.8782    2.5265    0.0000 H   0  0  0  0  0  0  0  0  0  0  0  0
  2  1  1  0
  3  1  1  0
  4  3  1  0
  5  1  1  0
  2  6  1  0
  7  5  1  0
  4  8  1  1
  5  9  1  6
 10  8  2  0
 11 10  1  0
 12  3  2  0
 13  9  2  0
 14  9  1  0
 15  7  1  0
 16  7  1  0
 17 11  1  0
 18 11  1  0
 19 17  1  0
 20 18  1  0
 21 20  1  0
 22 19  1  0
  7  6  1  0
  2  4  1  0
 21 22  1  0
  2 23  1  6
M  END

> <chembl_id>
CHEMBL530

> <chembl_pref_name>
AMDINOCILLIN

$$$$

     RDKit          2D

 26 29  0  0  0  0  0  0  0  0999 V2000
   -0.8793    0.0317    0.0000 C   0  0  0  0  0  0  0  0  0  0  0  0
   -0.8793    0.8567    0.0000 C   0  0  0  0  0  0  0  0  0  0  0  0
   -0.1649    1.2692    0.0000 C   0  0  0  0  0  0  0  0  0  0  0  0
    0.5496    0.8567    0.0000 C   0  0  0  0  0  0  0  0  0  0  0  0
    1.2641    1.2692    0.0000 C   0  0  0  0  0  0  0  0  0  0  0  0
    1.9785    0.8567    0.0000 C   0  0  0  0  0  0  0  0  0  0  0  0
    1.9785    0.0317    0.0000 C   0  0  0  0  0  0  0  0  0  0  0  0
   -0.1649   -0.3808    0.0000 C   0  0  0  0  0  0  0  0  0  0  0  0
    0.5496    0.0317    0.0000 C   0  0  0  0  0  0  0  0  0  0  0  0
    1.2641   -0.3808    0.0000 N   0  0  0  0  0  0  0  0  0  0  0  0
    1.2641   -1.2058    0.0000 C   0  0  0  0  0  0  0  0  0  0  0  0
    0.5496   -1.6183    0.0000 C   0  0  0  0  0  0  0  0  0  0  0  0
   -0.1649   -1.2058    0.0000 O   0  0  0  0  0  0  0  0  0  0  0  0
   -1.5938   -0.3808    0.0000 N   0  0  0  0  0  0  0  0  0  0  0  0
   -1.5938   -1.2058    0.0000 C   0  0  0  0  0  0  0  0  0  0  0  0
   -2.3083   -1.6183    0.0000 C   0  0  0  0  0  0  0  0  0  0  0  0
   -3.0228   -1.2058    0.0000 N   0  0  0  0  0  0  0  0  0  0  0  0
   -3.0228   -0.3808    0.0000 C   0  0  0  0  0  0  0  0  0  0  0  0
   -2.3083    0.0317    0.0000 C   0  0  0  0  0  0  0  0  0  0  0  0
   -3.7372   -1.6183    0.0000 C   0  0  0  0  0  0  0  0  0  0  0  0
    1.9785   -1.6183    0.0000 C   0  0  0  0  0  0  0  0  0  0  0  0
   -1.5938    1.2692    0.0000 F   0  0  0  0  0  0  0  0  0  0  0  0
    1.2641    2.0942    0.0000 O   0  0  0  0  0  0  0  0  0  0  0  0
    2.6930    1.2692    0.0000 C   0  0  0  0  0  0  0  0  0  0  0  0
    2.6930    2.0942    0.0000 O   0  0  0  0  0  0  0  0  0  0  0  0
    3.4075    0.8567    0.0000 O   0  0  0  0  0  0  0  0  0  0  0  0
  1  2  1  0
  2  3  2  0
  3  4  1  0
  4  5  1  0
  5  6  1  0
  6  7  2  0
  1  8  2  0
  4  9  2  0
  8  9  1  0
  7 10  1  0
  9 10  1  0
 10 11  1  0
 11 12  1  0
  8 13  1  0
 12 13  1  0
  1 14  1  0
 14 15  1  0
 15 16  1  0
 16 17  1  0
 17 18  1  0
 14 19  1  0
 18 19  1  0
 17 20  1  0
 11 21  1  0
  2 22  1  0
  5 23  2  0
  6 24  1  0
 24 25  1  0
 24 26  2  0
M  END

> <chembl_id>
CHEMBL4

> <chembl_pref_name>
OFLOXACIN

$$$$

     RDKit          2D

 43 47  0  0  0  0  0  0  0  0999 V2000
    6.2375   -7.3125    0.0000 N   0  0  0  0  0  0  0  0  0  0  0  0
    5.5292   -7.3125    0.0000 C   0  0  0  0  0  0  0  0  0  0  0  0
    5.5292   -6.6042    0.0000 C   0  0  0  0  0  0  0  0  0  0  0  0
    6.2375   -6.6042    0.0000 C   0  0  0  0  0  0  0  0  0  0  0  0
    9.3000   -7.6625    0.0000 C   0  0  0  0  0  0  0  0  0  0  0  0
    6.8458   -7.6667    0.0000 C   0  0  0  0  0  0  0  0  0  0  0  0
    9.8792   -7.2458    0.0000 N   0  0  0  0  0  0  0  0  0  0  0  0
    9.5208   -8.3417    0.0000 N   0  0  0  0  0  0  0  0  0  0  0  0
   10.2333   -8.3417    0.0000 N   0  0  0  0  0  0  0  0  0  0  0  0
   10.4500   -7.6625    0.0000 N   0  0  0  0  0  0  0  0  0  0  0  0
    4.9125   -6.2500    0.0000 N   0  0  0  0  0  0  0  0  0  0  0  0
    2.4583   -6.2542    0.0000 C   0  0  0  0  0  0  0  0  0  0  0  0
    6.8458   -6.2500    0.0000 S   0  0  0  0  0  0  0  0  0  0  0  0
    1.8458   -6.6083    0.0000 C   0  0  0  0  0  0  0  0  0  0  0  0
    7.4583   -7.3125    0.0000 C   0  0  0  0  0  0  0  0  0  0  0  0
    4.2958   -6.6042    0.0000 C   0  0  0  0  0  0  0  0  0  0  0  0
    3.0708   -6.6083    0.0000 N   0  0  0  0  0  0  0  0  0  0  0  0
    3.6833   -6.2500    0.0000 C   0  0  0  0  0  0  0  0  0  0  0  0
    6.8458   -8.3750    0.0000 C   0  0  0  0  0  0  0  0  0  0  0  0
    1.2333   -6.2542    0.0000 C   0  0  0  0  0  0  0  0  0  0  0  0
    8.6875   -7.3083    0.0000 S   0  0  0  0  0  0  0  0  0  0  0  0
    1.8500   -7.3167    0.0000 C   0  0  0  0  0  0  0  0  0  0  0  0
    1.2417   -7.6708    0.0000 N   0  0  0  0  0  0  0  0  0  0  0  0
    7.4583   -6.6042    0.0000 C   0  0  0  0  0  0  0  0  0  0  0  0
    0.6208   -6.6083    0.0000 C   0  0  0  0  0  0  0  0  0  0  0  0
    5.0250   -7.8125    0.0000 O   0  0  0  0  0  0  0  0  0  0  0  0
    8.0750   -7.6625    0.0000 C   0  0  0  0  0  0  0  0  0  0  0  0
    3.6833   -5.5417    0.0000 C   0  0  0  0  0  0  0  0  0  0  0  0
    2.4542   -5.5458    0.0000 O   0  0  0  0  0  0  0  0  0  0  0  0
    4.3000   -7.3125    0.0000 O   0  0  0  0  0  0  0  0  0  0  0  0
    7.4625   -8.7292    0.0000 O   0  0  0  0  0  0  0  0  0  0  0  0
    6.2333   -8.7292    0.0000 O   0  0  0  0  0  0  0  0  0  0  0  0
    0.6208   -7.3208    0.0000 C   0  0  0  0  0  0  0  0  0  0  0  0
    4.2958   -5.1917    0.0000 C   0  0  0  0  0  0  0  0  0  0  0  0
    3.0667   -5.1958    0.0000 C   0  0  0  0  0  0  0  0  0  0  0  0
    1.2333   -5.5458    0.0000 O   0  0  0  0  0  0  0  0  0  0  0  0
    9.8792   -6.5375    0.0000 C   0  0  0  0  0  0  0  0  0  0  0  0
    3.6792   -4.1292    0.0000 C   0  0  0  0  0  0  0  0  0  0  0  0
    3.0625   -4.4875    0.0000 C   0  0  0  0  0  0  0  0  0  0  0  0
    4.2917   -4.4833    0.0000 C   0  0  0  0  0  0  0  0  0  0  0  0
    3.6750   -3.4208    0.0000 O   0  0  0  0  0  0  0  0  0  0  0  0
    0.0083   -7.6750    0.0000 C   0  0  0  0  0  0  0  0  0  0  0  0
    6.2292   -5.8917    0.0000 H   0  0  0  0  0  0  0  0  0  0  0  0
  2  1  1  0
  3  2  1  0
  4  1  1  0
  5 21  1  0
  6  1  1  0
  7  5  1  0
  8  5  2  0
  9  8  1  0
 10  7  1  0
  3 11  1  1
 12 17  1  0
 13  4  1  0
 14 12  1  0
 15  6  2  0
 16 11  1  0
 17 18  1  0
 18 16  1  0
 19  6  1  0
 20 14  2  0
 21 27  1  0
 22 14  1  0
 23 22  2  0
 24 15  1  0
 25 20  1  0
 26  2  2  0
 27 15  1  0
 18 28  1  6
 29 12  2  0
 30 16  2  0
 31 19  1  0
 32 19  2  0
 33 23  1  0
 34 28  2  0
 35 28  1  0
 36 20  1  0
 37  7  1  0
 38 39  1  0
 39 35  2  0
 40 34  1  0
 41 38  1  0
 42 33  1  0
  4 43  1  6
  3  4  1  0
 13 24  1  0
 10  9  2  0
 38 40  2  0
 33 25  2  0
M  END

> <chembl_id>
CHEMBL1201204

> <chembl_pref_name>
CEFPIRAMIDE

$$$$

     RDKit          2D

 61 65  0  0  0  0  0  0  0  0999 V2000
   11.6850   -0.7530    0.0000 O   0  0  0  0  0  0  0  0  0  0  0  0
   14.5389   -0.9030    0.0000 C   0  0  0  0  0  0  0  0  0  0  0  0
   13.8471   -0.4536    0.0000 C   0  0  0  0  0  0  0  0  0  0  0  0
   13.1119   -0.8280    0.0000 C   0  0  0  0  0  0  0  0  0  0  0  0
   12.4201   -0.3786    0.0000 C   0  0  0  0  0  0  0  0  0  0  0  0
   14.4956   -1.7268    0.0000 C   0  0  0  0  0  0  0  0  0  0  0  0
   13.7605   -2.1013    0.0000 C   0  0  0  0  0  0  0  0  0  0  0  0
   13.7172   -2.9251    0.0000 C   0  0  0  0  0  0  0  0  0  0  0  0
   10.8633   -2.7752    0.0000 C   0  0  0  0  0  0  0  0  0  0  0  0
   10.9066   -1.9514    0.0000 C   0  0  0  0  0  0  0  0  0  0  0  0
   11.6417   -1.5769    0.0000 C   0  0  0  0  0  0  0  0  0  0  0  0
   12.9821   -3.2996    0.0000 C   0  0  0  0  0  0  0  0  0  0  0  0
   12.2903   -2.8502    0.0000 C   0  0  0  0  0  0  0  0  0  0  0  0
   11.5551   -3.2246    0.0000 C   0  0  0  0  0  0  0  0  0  0  0  0
   12.2751   -2.0068    0.0000 O   0  0  0  0  0  0  0  0  0  0  0  0
   12.9778   -4.1235    0.0000 C   0  0  0  0  0  0  0  0  0  0  0  0
   11.5118   -4.0680    0.0000 C   0  0  0  0  0  0  0  0  0  0  0  0
   10.0664   -2.9887    0.0000 N   0  0  0  0  0  0  0  0  0  0  0  0
   10.1364   -1.6556    0.0000 O   0  0  0  0  0  0  0  0  0  0  0  0
    9.6171   -2.2967    0.0000 C   0  0  0  0  0  0  0  0  0  0  0  0
    8.7933   -2.2534    0.0000 O   0  0  0  0  0  0  0  0  0  0  0  0
   12.4244    0.4647    0.0000 O   0  0  0  0  0  0  0  0  0  0  0  0
   13.4506   -0.0586    0.0000 F   0  0  0  0  0  0  0  0  0  0  0  0
   12.9546   -0.0961    0.0000 C   0  0  0  0  0  0  0  0  0  0  0  0
   13.8514    0.3898    0.0000 O   0  0  0  0  0  0  0  0  0  0  0  0
   15.2740   -0.5285    0.0000 C   0  0  0  0  0  0  0  0  0  0  0  0
   15.1875   -2.1762    0.0000 O   0  0  0  0  0  0  0  0  0  0  0  0
   15.9226   -1.8018    0.0000 C   0  0  0  0  0  0  0  0  0  0  0  0
   15.9659   -0.9779    0.0000 O   0  0  0  0  0  0  0  0  0  0  0  0
   16.7010   -0.6035    0.0000 C   0  0  0  0  0  0  0  0  0  0  0  0
   17.3929   -1.0529    0.0000 C   0  0  0  0  0  0  0  0  0  0  0  0
   17.3496   -1.8767    0.0000 C   0  0  0  0  0  0  0  0  0  0  0  0
   16.6145   -2.2512    0.0000 C   0  0  0  0  0  0  0  0  0  0  0  0
   16.6858    0.2399    0.0000 C   0  0  0  0  0  0  0  0  0  0  0  0
   18.0414   -2.3262    0.0000 N   0  0  0  0  0  0  0  0  0  0  0  0
   18.7766   -1.9517    0.0000 C   0  0  0  0  0  0  0  0  0  0  0  0
   18.0371   -3.1500    0.0000 C   0  0  0  0  0  0  0  0  0  0  0  0
   16.6101   -3.0751    0.0000 O   0  0  0  0  0  0  0  0  0  0  0  0
   14.2452   -2.7632    0.0000 O   0  0  0  0  0  0  0  0  0  0  0  0
   14.2376   -3.5326    0.0000 C   0  0  0  0  0  0  0  0  0  0  0  0
   14.5405   -2.3700    0.0000 C   0  0  0  0  0  0  0  0  0  0  0  0
   10.2897   -4.4000    0.0000 C   0  0  0  0  0  0  0  0  0  0  0  0
    9.9940   -5.1702    0.0000 C   0  0  0  0  0  0  0  0  0  0  0  0
    9.7706   -3.7588    0.0000 C   0  0  0  0  0  0  0  0  0  0  0  0
    9.1791   -5.2992    0.0000 C   0  0  0  0  0  0  0  0  0  0  0  0
    8.6600   -4.6580    0.0000 N   0  0  0  0  0  0  0  0  0  0  0  0
    7.8361   -4.7010    0.0000 C   0  0  0  0  0  0  0  0  0  0  0  0
    7.5406   -3.9308    0.0000 C   0  0  0  0  0  0  0  0  0  0  0  0
    8.1818   -3.4117    0.0000 N   0  0  0  0  0  0  0  0  0  0  0  0
    8.8736   -3.8611    0.0000 N   0  0  0  0  0  0  0  0  0  0  0  0
    6.7437   -3.7172    0.0000 C   0  0  0  0  0  0  0  0  0  0  0  0
    6.1603   -4.3005    0.0000 C   0  0  0  0  0  0  0  0  0  0  0  0
    5.3634   -4.0868    0.0000 C   0  0  0  0  0  0  0  0  0  0  0  0
    5.1500   -3.2899    0.0000 C   0  0  0  0  0  0  0  0  0  0  0  0
    5.7334   -2.7066    0.0000 C   0  0  0  0  0  0  0  0  0  0  0  0
    6.5303   -2.9203    0.0000 C   0  0  0  0  0  0  0  0  0  0  0  0
    5.5200   -1.9097    0.0000 N   0  0  0  0  0  0  0  0  0  0  0  0
   10.6110   -1.1811    0.0000 C   0  0  0  0  0  0  0  0  0  0  0  0
   10.9498   -1.1275    0.0000 C   0  0  0  0  0  0  0  0  0  0  0  0
   10.9736   -0.2842    0.0000 C   0  0  0  0  0  0  0  0  0  0  0  0
   10.4139   -3.4671    0.0000 H   0  0  0  0  0  0  0  0  0  0  0  0
  2  3  1  0
  3  4  1  0
  4  5  1  0
  5  1  1  0
  2  6  1  0
  6  7  1  0
  7  8  1  0
 11  1  1  0
  9 10  1  0
 10 11  1  0
  8 12  1  0
 14  9  1  0
 12 13  1  0
 13 14  1  0
 13 15  2  0
 12 16  1  1
 14 17  1  6
  9 18  1  0
 10 19  1  0
 19 20  1  0
 20 18  1  0
 20 21  2  0
  5 22  2  0
  4 23  1  1
  4 24  1  0
  3 25  2  0
  2 26  1  6
  6 27  1  1
 28 27  1  6
 28 29  1  0
 33 28  1  0
 29 30  1  0
 30 31  1  0
 31 32  1  0
 32 33  1  0
 30 34  1  6
 32 35  1  6
 35 36  1  0
 35 37  1  0
 33 38  1  1
  7 39  1  0
 39 40  1  0
  7 41  1  1
 42 43  1  0
 18 44  1  0
 44 42  1  0
 43 45  1  0
 45 46  1  0
 46 47  1  0
 46 50  1  0
 47 48  2  0
 48 49  1  0
 49 50  2  0
 48 51  1  0
 51 52  1  0
 51 56  2  0
 52 53  2  0
 53 54  1  0
 54 55  2  0
 55 56  1  0
 55 57  1  0
 10 58  1  1
 11 59  1  6
 59 60  1  0
  9 61  1  6
M  END

> <chembl_id>
CHEMBL1232510

> <chembl_pref_name>
SOLITHROMYCIN

$$$$

     RDKit          2D

 28 27  0  0  0  0  0  0  0  0999 V2000
    5.2750   -7.4417    0.0000 Na  0  0  0  0  0 15  0  0  0  0  0  0
   -1.6708   -6.7667    0.0000 N   0  0  0  0  0  0  0  0  0  0  0  0
    2.6208   -5.6708    0.0000 C   0  0  0  0  0  0  0  0  0  0  0  0
    2.0042   -5.3250    0.0000 N   0  0  0  0  0  0  0  0  0  0  0  0
    1.4167   -5.6917    0.0000 C   0  0  0  0  0  0  0  0  0  0  0  0
   -1.0583   -6.4292    0.0000 C   0  0  0  0  0  0  0  0  0  0  0  0
    3.2458   -5.3042    0.0000 C   0  0  0  0  0  0  0  0  0  0  0  0
    0.8042   -5.3500    0.0000 C   0  0  0  0  0  0  0  0  0  0  0  0
   -2.2958   -6.4375    0.0000 O   0  0  0  0  0  0  0  0  0  0  0  0
    3.9292   -7.7375    0.0000 C   0  0  0  0  0  0  0  0  0  0  0  0
    2.0708   -7.4542    0.0000 C   0  0  0  0  0  0  0  0  0  0  0  0
   -1.6833   -7.4792    0.0000 O   0  0  0  0  0  0  0  0  0  0  0  0
    0.1750   -5.7000    0.0000 C   0  0  0  0  0  0  0  0  0  0  0  0
    2.6500   -6.3833    0.0000 O   0  0  0  0  0  0  0  0  0  0  0  0
    1.4375   -6.3917    0.0000 C   0  0  0  0  0  0  0  0  0  0  0  0
    4.5292   -7.3667    0.0000 O   0  0  0  0  0  0  0  0  0  0  0  0
    2.0542   -6.7417    0.0000 O   0  0  0  0  0  0  0  0  0  0  0  0
    3.9458   -8.4208    0.0000 O   0  0  0  0  0  0  0  0  0  0  0  0
    1.4583   -7.8292    0.0000 O   0  0  0  0  0  0  0  0  0  0  0  0
   -0.4333   -6.7625    0.0000 C   0  0  0  0  0  0  0  0  0  0  0  0
   -1.0583   -5.7167    0.0000 C   0  0  0  0  0  0  0  0  0  0  0  0
   -0.4375   -5.3542    0.0000 C   0  0  0  0  0  0  0  0  0  0  0  0
    0.1750   -6.3917    0.0000 C   0  0  0  0  0  0  0  0  0  0  0  0
    3.3042   -7.4042    0.0000 C   0  0  0  0  0  0  0  0  0  0  0  0
    2.7000   -7.7917    0.0000 C   0  0  0  0  0  0  0  0  0  0  0  0
    3.8708   -5.6417    0.0000 Cl  0  0  0  0  0  0  0  0  0  0  0  0
    3.2208   -4.5875    0.0000 Cl  0  0  0  0  0  0  0  0  0  0  0  0
    0.8042   -4.6417    0.0000 O   0  0  0  0  0  0  0  0  0  0  0  0
  3  4  1  0
  4  5  1  0
  5  8  1  0
  6  2  1  0
  7  3  1  0
  8 13  1  0
  9  2  1  0
 10 24  1  0
 11 17  1  0
 12  2  2  0
 13 23  2  0
 14  3  2  0
  5 15  1  6
 16 10  1  0
 17 15  1  0
 18 10  2  0
 19 11  2  0
 20  6  2  0
 21  6  1  0
 22 21  2  0
 23 20  1  0
 24 25  1  0
 25 11  1  0
 26  7  1  0
 27  7  1  0
  8 28  1  1
 13 22  1  0
M  CHG  4   1   1   2   1   9  -1  16  -1
M  END

> <chembl_id>
CHEMBL1200729

> <chembl_pref_name>
CHLORAMPHENICOL SODIUM SUCCINATE

$$$$

     RDKit          2D

 65 67  0  0  0  0  0  0  0  0999 V2000
    2.1333   -3.5958    0.0000 C   0  0  0  0  0  0  0  0  0  0  0  0
    2.8478   -3.1833    0.0000 C   0  0  0  0  0  0  0  0  0  0  0  0
    3.5622   -3.5958    0.0000 C   0  0  0  0  0  0  0  0  0  0  0  0
    2.1333   -4.4208    0.0000 C   0  0  0  0  0  0  0  0  0  0  0  0
    1.4188   -4.8333    0.0000 C   0  0  0  0  0  0  0  0  0  0  0  0
    1.4188   -5.6583    0.0000 C   0  0  0  0  0  0  0  0  0  0  0  0
    0.7044   -6.0708    0.0000 C   0  0  0  0  0  0  0  0  0  0  0  0
    0.7044   -6.8958    0.0000 C   0  0  0  0  0  0  0  0  0  0  0  0
   -0.0101   -7.3083    0.0000 C   0  0  0  0  0  0  0  0  0  0  0  0
    1.4188   -7.3083    0.0000 O   0  0  0  0  0  0  0  0  0  0  0  0
    2.1333   -6.8958    0.0000 C   0  0  0  0  0  0  0  0  0  0  0  0
    2.1333   -6.0708    0.0000 O   0  0  0  0  0  0  0  0  0  0  0  0
    3.5622   -4.4208    0.0000 C   0  0  0  0  0  0  0  0  0  0  0  0
    4.2767   -4.8333    0.0000 C   0  0  0  0  0  0  0  0  0  0  0  0
    4.2767   -5.6583    0.0000 C   0  0  0  0  0  0  0  0  0  0  0  0
    3.5622   -6.0708    0.0000 C   0  0  0  0  0  0  0  0  0  0  0  0
    3.5622   -6.8958    0.0000 C   0  0  0  0  0  0  0  0  0  0  0  0
    2.8478   -7.3083    0.0000 C   0  0  0  0  0  0  0  0  0  0  0  0
    2.8478   -2.3583    0.0000 O   0  0  0  0  0  0  0  0  0  0  0  0
    4.9912   -4.4208    0.0000 C   0  0  0  0  0  0  0  0  0  0  0  0
    4.2767   -7.3083    0.0000 O   0  0  0  0  0  0  0  0  0  0  0  0
    4.2767   -8.1333    0.0000 C   0  0  0  0  0  0  0  0  0  0  0  0
    4.9912   -8.5458    0.0000 C   0  0  0  0  0  0  0  0  0  0  0  0
    3.5622   -8.5458    0.0000 O   0  0  0  0  0  0  0  0  0  0  0  0
    4.9912   -9.3708    0.0000 C   0  0  0  0  0  0  0  0  0  0  0  0
    4.9912   -6.0708    0.0000 O   0  0  0  0  0  0  0  0  0  0  0  0
    2.8478   -5.6583    0.0000 O   0  0  0  0  0  0  0  0  0  0  0  0
    2.8478   -4.8333    0.0000 C   0  0  0  0  0  0  0  0  0  0  0  0
    5.7057   -5.6583    0.0000 C   0  0  0  0  0  0  0  0  0  0  0  0
    6.4152   -6.0721    0.0000 O   0  0  0  0  0  0  0  0  0  0  0  0
    7.1275   -5.6632    0.0000 C   0  0  0  0  0  0  0  0  0  0  0  0
    7.1318   -4.8378    0.0000 C   0  0  0  0  0  0  0  0  0  0  0  0
    6.4175   -4.4231    0.0000 C   0  0  0  0  0  0  0  0  0  0  0  0
    5.6989   -4.8338    0.0000 C   0  0  0  0  0  0  0  0  0  0  0  0
    5.6916   -4.0083    0.0000 O   0  0  0  0  0  0  0  0  0  0  0  0
    6.4203   -3.5981    0.0000 N   0  0  0  0  0  0  0  0  0  0  0  0
    7.1362   -3.1881    0.0000 C   0  0  0  0  0  0  0  0  0  0  0  0
    5.7072   -3.1832    0.0000 C   0  0  0  0  0  0  0  0  0  0  0  0
    7.8478   -4.4280    0.0000 O   0  0  0  0  0  0  0  0  0  0  0  0
    7.8404   -6.0784    0.0000 C   0  0  0  0  0  0  0  0  0  0  0  0
    8.5607   -4.8432    0.0000 C   0  0  0  0  0  0  0  0  0  0  0  0
    8.5529   -5.6720    0.0000 O   0  0  0  0  0  0  0  0  0  0  0  0
    9.2617   -6.0871    0.0000 C   0  0  0  0  0  0  0  0  0  0  0  0
    9.9802   -5.6808    0.0000 C   0  0  0  0  0  0  0  0  0  0  0  0
    9.9853   -4.8549    0.0000 C   0  0  0  0  0  0  0  0  0  0  0  0
    9.2720   -4.4352    0.0000 C   0  0  0  0  0  0  0  0  0  0  0  0
    9.2555   -6.9120    0.0000 C   0  0  0  0  0  0  0  0  0  0  0  0
   10.1958   -4.0541    0.0000 O   0  0  0  0  0  0  0  0  0  0  0  0
   10.7791   -5.0666    0.0000 C   0  0  0  0  0  0  0  0  0  0  0  0
   10.6915   -6.0987    0.0000 O   0  0  0  0  0  0  0  0  0  0  0  0
   10.6853   -6.9237    0.0000 C   0  0  0  0  0  0  0  0  0  0  0  0
   11.3966   -7.3416    0.0000 C   0  0  0  0  0  0  0  0  0  0  0  0
    9.9677   -7.3307    0.0000 O   0  0  0  0  0  0  0  0  0  0  0  0
   11.3904   -8.1665    0.0000 C   0  0  0  0  0  0  0  0  0  0  0  0
    2.1333   -1.9458    0.0000 C   0  0  0  0  0  0  0  0  0  0  0  0
    2.1333   -1.1208    0.0000 O   0  0  0  0  0  0  0  0  0  0  0  0
    1.4188   -2.3583    0.0000 C   0  0  0  0  0  0  0  0  0  0  0  0
    5.7000   -6.4791    0.0000 H   0  0  0  0  0  0  0  0  0  0  0  0
    7.8416   -5.2500    0.0000 H   0  0  0  0  0  0  0  0  0  0  0  0
    4.9912   -3.5958    0.0000 C   0  0  0  0  0  0  0  0  0  0  0  0
    2.9708   -4.1792    0.0000 C   0  0  0  0  0  0  0  0  0  0  0  0
    4.2768   -3.1833    0.0000 O   0  0  0  0  0  0  0  0  0  0  0  0
    9.6097   -3.4735    0.0000 C   0  0  0  0  0  0  0  0  0  0  0  0
    9.8194   -2.6756    0.0000 C   0  0  0  0  0  0  0  0  0  0  0  0
    8.8138   -3.6908    0.0000 O   0  0  0  0  0  0  0  0  0  0  0  0
  7  8  1  0
 15 16  1  0
 16 17  1  0
 29 34  1  0
 30 31  1  0
 31 32  1  0
 32 33  1  0
 33 34  1  0
  8  9  1  6
 17 18  1  0
 34 35  1  6
  4  5  1  0
 33 36  1  1
  2 19  1  6
 36 37  1  0
  8 10  1  0
 36 38  1  0
 32 39  1  6
  2  3  1  0
 31 40  1  1
 14 20  1  6
 41 39  1  0
 41 42  1  0
 10 11  1  0
 17 21  1  6
 11 18  1  0
 21 22  1  0
  5  6  2  0
 41 46  1  0
 42 43  1  0
 43 44  1  0
 44 45  1  0
 45 46  1  0
 22 23  1  0
 43 47  1  6
 11 12  2  0
 45 48  1  0
 22 24  2  0
 45 49  1  6
  1  2  1  0
 44 50  1  1
 23 25  1  0
 50 51  1  0
  3 13  1  0
 51 52  1  0
 15 26  1  6
 51 53  2  0
  6  7  1  0
 52 54  1  0
 16 27  1  6
 19 55  1  0
 13 14  1  0
 55 56  2  0
 27 28  1  0
 55 57  1  0
  1  4  2  0
 29 58  1  6
 29 26  1  0
 41 59  1  6
 20 60  1  0
 29 30  1  0
  3 61  1  6
 14 15  1  0
 60 62  2  0
 48 63  1  0
 63 64  1  0
 63 65  2  0
M  END

> <chembl_id>
CHEMBL1091024

> <chembl_pref_name>
MIOCAMYCIN

$$$$

     RDKit          2D

 26 27  0  0  0  0  0  0  0  0999 V2000
    4.2417   -7.8125    0.0000 O   0  0  0  0  0  0  0  0  0  0  0  0
    5.6542   -6.3417    0.0000 N   0  0  0  0  0  0  0  0  0  0  0  0
    4.9542   -6.3417    0.0000 C   0  0  0  0  0  0  0  0  0  0  0  0
    4.9542   -5.6250    0.0000 C   0  0  0  0  0  0  0  0  0  0  0  0
    5.6542   -5.6250    0.0000 C   0  0  0  0  0  0  0  0  0  0  0  0
    6.2625   -6.6917    0.0000 C   0  0  0  0  0  0  0  0  0  0  0  0
    4.3292   -5.2667    0.0000 N   0  0  0  0  0  0  0  0  0  0  0  0
    6.2625   -5.2750    0.0000 S   0  0  0  0  0  0  0  0  0  0  0  0
    3.7292   -5.6250    0.0000 C   0  0  0  0  0  0  0  0  0  0  0  0
    6.8792   -6.3417    0.0000 C   0  0  0  0  0  0  0  0  0  0  0  0
    6.2625   -7.4042    0.0000 C   0  0  0  0  0  0  0  0  0  0  0  0
    3.1125   -5.2750    0.0000 C   0  0  0  0  0  0  0  0  0  0  0  0
    6.8792   -5.6250    0.0000 C   0  0  0  0  0  0  0  0  0  0  0  0
    4.4500   -6.8417    0.0000 O   0  0  0  0  0  0  0  0  0  0  0  0
    3.7417   -6.3375    0.0000 O   0  0  0  0  0  0  0  0  0  0  0  0
    5.6542   -7.7667    0.0000 O   0  0  0  0  0  0  0  0  0  0  0  0
    2.5042   -5.6417    0.0000 C   0  0  0  0  0  0  0  0  0  0  0  0
    3.1125   -4.5625    0.0000 N   0  0  0  0  0  0  0  0  0  0  0  0
    6.8792   -7.7667    0.0000 O   0  0  0  0  0  0  0  0  0  0  0  0
    7.5000   -6.6917    0.0000 C   0  0  0  0  0  0  0  0  0  0  0  0
    2.5000   -6.3542    0.0000 C   0  0  0  0  0  0  0  0  0  0  0  0
    1.8792   -5.2917    0.0000 C   0  0  0  0  0  0  0  0  0  0  0  0
    1.8875   -6.7125    0.0000 C   0  0  0  0  0  0  0  0  0  0  0  0
    1.2542   -5.6500    0.0000 C   0  0  0  0  0  0  0  0  0  0  0  0
    1.2625   -6.3625    0.0000 C   0  0  0  0  0  0  0  0  0  0  0  0
    5.6542   -4.9167    0.0000 H   0  0  0  0  0  0  0  0  0  0  0  0
  3  2  1  0
  4  5  1  0
  5  2  1  0
  6  2  1  0
  4  7  1  1
  8  5  1  0
  9  7  1  0
 10  6  2  0
 11  6  1  0
 12  9  1  0
 13 10  1  0
 14  3  2  0
 15  9  2  0
 16 11  2  0
 17 12  1  0
 12 18  1  1
 19 11  1  0
 20 10  1  0
 21 17  1  0
 22 17  2  0
 23 21  2  0
 24 22  1  0
 25 23  1  0
  5 26  1  6
  4  3  1  0
 13  8  1  0
 25 24  2  0
M  END

> <chembl_id>
CHEMBL1200544

> <chembl_pref_name>
CEPHALEXIN

$$$$

     RDKit          2D

 17 18  0  0  0  0  0  0  0  0999 V2000
    1.2042   -3.0167    0.0000 S   0  0  0  0  0  0  0  0  0  0  0  0
    1.2042   -2.3000    0.0000 N   0  0  0  0  0  0  0  0  0  0  0  0
    1.2042   -3.7417    0.0000 C   0  0  0  0  0  0  0  0  0  0  0  0
    0.5667   -1.9542    0.0000 C   0  0  0  0  0  0  0  0  0  0  0  0
    0.5167   -3.0167    0.0000 O   0  0  0  0  0  0  0  0  0  0  0  0
    1.9292   -3.0167    0.0000 O   0  0  0  0  0  0  0  0  0  0  0  0
   -0.0708   -2.3042    0.0000 N   0  0  0  0  0  0  0  0  0  0  0  0
    1.8417   -4.0667    0.0000 C   0  0  0  0  0  0  0  0  0  0  0  0
    0.6292   -4.0792    0.0000 C   0  0  0  0  0  0  0  0  0  0  0  0
    1.2500   -5.1500    0.0000 C   0  0  0  0  0  0  0  0  0  0  0  0
    1.2500   -5.8542    0.0000 N   0  0  0  0  0  0  0  0  0  0  0  0
    0.6167   -4.8000    0.0000 C   0  0  0  0  0  0  0  0  0  0  0  0
    1.8417   -4.8250    0.0000 C   0  0  0  0  0  0  0  0  0  0  0  0
   -0.6708   -1.9542    0.0000 C   0  0  0  0  0  0  0  0  0  0  0  0
    0.5667   -1.2542    0.0000 C   0  0  0  0  0  0  0  0  0  0  0  0
   -0.6708   -1.2542    0.0000 C   0  0  0  0  0  0  0  0  0  0  0  0
   -0.0708   -0.9000    0.0000 C   0  0  0  0  0  0  0  0  0  0  0  0
  2  1  1  0
  3  1  1  0
  4  2  1  0
  5  1  2  0
  6  1  2  0
  7  4  1  0
  8  3  1  0
  9  3  2  0
 10 12  2  0
 11 10  1  0
 12  9  1  0
 13  8  2  0
 14  7  2  0
 15  4  2  0
 16 17  2  0
 17 15  1  0
 13 10  1  0
 14 16  1  0
M  END

> <chembl_id>
CHEMBL700

> <chembl_pref_name>
SULFAPYRIDINE

$$$$

     RDKit          2D

 29 32  0  0  0  0  0  0  0  0999 V2000
    0.0087   -1.3136    0.0000 C   0  0  0  0  0  0  0  0  0  0  0  0
    0.0087   -2.1386    0.0000 C   0  0  0  0  0  0  0  0  0  0  0  0
    0.7232   -2.5511    0.0000 S   0  0  0  0  0  0  0  0  0  0  0  0
    0.7232   -0.9011    0.0000 C   0  0  0  0  0  0  0  0  0  0  0  0
    1.4377   -1.3136    0.0000 N   0  0  0  0  0  0  0  0  0  0  0  0
    1.4377   -2.1386    0.0000 C   0  0  0  0  0  0  0  0  0  0  0  0
    2.2627   -2.1386    0.0000 C   0  0  0  0  0  0  0  0  0  0  0  0
    2.2627   -1.3136    0.0000 C   0  0  0  0  0  0  0  0  0  0  0  0
    2.8460   -0.7302    0.0000 O   0  0  0  0  0  0  0  0  0  0  0  0
    3.6429   -2.5084    0.0000 C   0  0  0  0  0  0  0  0  0  0  0  0
    4.2263   -3.0918    0.0000 C   0  0  0  0  0  0  0  0  0  0  0  0
    3.8565   -1.7116    0.0000 O   0  0  0  0  0  0  0  0  0  0  0  0
    5.0232   -2.8783    0.0000 C   0  0  0  0  0  0  0  0  0  0  0  0
    5.6643   -3.3975    0.0000 C   0  0  0  0  0  0  0  0  0  0  0  0
    6.3562   -2.9481    0.0000 C   0  0  0  0  0  0  0  0  0  0  0  0
    6.1427   -2.1513    0.0000 C   0  0  0  0  0  0  0  0  0  0  0  0
    5.3188   -2.1081    0.0000 S   0  0  0  0  0  0  0  0  0  0  0  0
    0.7232   -0.0761    0.0000 C   0  0  0  0  0  0  0  0  0  0  0  0
    1.4377    0.3364    0.0000 O   0  0  0  0  0  0  0  0  0  0  0  0
    0.0087    0.3364    0.0000 O   0  0  0  0  0  0  0  0  0  0  0  0
   -0.7057   -0.9011    0.0000 C   0  0  0  0  0  0  0  0  0  0  0  0
   -1.4202   -1.3136    0.0000 N   0  0  0  0  0  0  0  0  0  0  0  0
   -2.1347   -0.9011    0.0000 C   0  0  0  0  0  0  0  0  0  0  0  0
   -2.8491   -1.3136    0.0000 C   0  0  0  0  0  0  0  0  0  0  0  0
   -2.8491   -2.1386    0.0000 C   0  0  0  0  0  0  0  0  0  0  0  0
   -2.1347   -2.5511    0.0000 C   0  0  0  0  0  0  0  0  0  0  0  0
   -1.4202   -2.1386    0.0000 C   0  0  0  0  0  0  0  0  0  0  0  0
    2.8460   -2.7220    0.0000 N   0  0  0  0  0  0  0  0  0  0  0  0
    1.4377   -2.9636    0.0000 H   0  0  0  0  0  0  0  0  0  0  0  0
  1  2  1  0
  1  4  2  0
  2  3  1  0
  6  3  1  0
  5  4  1  0
  5  6  1  0
  6  7  1  0
  7  8  1  0
  8  5  1  0
  8  9  2  0
 10 11  1  0
 10 12  2  0
 11 13  1  0
 13 14  2  0
 14 15  1  0
 15 16  2  0
 16 17  1  0
 17 13  1  0
  4 18  1  0
 18 19  2  0
 18 20  1  0
  1 21  1  0
 21 22  1  0
 22 23  2  0
 23 24  1  0
 24 25  2  0
 25 26  1  0
 26 27  2  0
 27 22  1  0
  7 28  1  1
 28 10  1  0
  6 29  1  6
M  CHG  2  20  -1  22   1
M  END

> <chembl_id>
CHEMBL316157

> <chembl_pref_name>
CEPHALORIDINE

$$$$

     RDKit          2D

 19 21  0  0  0  0  0  0  0  0999 V2000
   18.0161   -4.4766    0.0000 C   0  0  0  0  0  0  0  0  0  0  0  0
   18.0143   -2.8271    0.0000 C   0  0  0  0  0  0  0  0  0  0  0  0
   18.7282   -3.2354    0.0000 C   0  0  0  0  0  0  0  0  0  0  0  0
   18.7316   -4.0621    0.0000 C   0  0  0  0  0  0  0  0  0  0  0  0
   19.4453   -4.4703    0.0000 N   0  0  0  0  0  0  0  0  0  0  0  0
   20.1602   -4.0563    0.0000 N   0  0  0  0  0  0  0  0  0  0  0  0
   20.1568   -3.2295    0.0000 C   0  0  0  0  0  0  0  0  0  0  0  0
   19.4385   -2.8168    0.0000 C   0  0  0  0  0  0  0  0  0  0  0  0
   17.3028   -4.0647    0.0000 C   0  0  0  0  0  0  0  0  0  0  0  0
   17.2994   -3.2375    0.0000 C   0  0  0  0  0  0  0  0  0  0  0  0
   16.5117   -2.9850    0.0000 O   0  0  0  0  0  0  0  0  0  0  0  0
   16.0282   -3.6562    0.0000 C   0  0  0  0  0  0  0  0  0  0  0  0
   16.5172   -4.3233    0.0000 O   0  0  0  0  0  0  0  0  0  0  0  0
   20.8691   -2.8133    0.0000 C   0  0  0  0  0  0  0  0  0  0  0  0
   21.5833   -3.2227    0.0000 O   0  0  0  0  0  0  0  0  0  0  0  0
   20.8665   -1.9900    0.0000 O   0  0  0  0  0  0  0  0  0  0  0  0
   19.4340   -1.9935    0.0000 O   0  0  0  0  0  0  0  0  0  0  0  0
   19.4475   -5.2936    0.0000 C   0  0  0  0  0  0  0  0  0  0  0  0
   18.7357   -5.7071    0.0000 C   0  0  0  0  0  0  0  0  0  0  0  0
  9 10  2  0
  9  1  1  0
  1  4  2  0
  3  2  2  0
  2 10  1  0
 10 11  1  0
 11 12  1  0
 12 13  1  0
 13  9  1  0
  3  4  1  0
  3  8  1  0
  4  5  1  0
 14 15  1  0
 14 16  2  0
  7 14  1  0
  5  6  1  0
  8 17  2  0
  6  7  2  0
  5 18  1  0
  7  8  1  0
 18 19  1  0
M  END

> <chembl_id>
CHEMBL1208

> <chembl_pref_name>
CINOXACIN

$$$$

     RDKit          2D

 37 40  0  0  0  0  0  0  0  0999 V2000
   -6.7664    1.3590    0.0000 N   0  0  0  0  0  0  0  0  0  0  0  0
   -7.5914    1.3590    0.0000 C   0  0  0  0  0  0  0  0  0  0  0  0
   -7.5914    0.5340    0.0000 C   0  0  0  0  0  0  0  0  0  0  0  0
   -6.7664    0.5340    0.0000 C   0  0  0  0  0  0  0  0  0  0  0  0
   -5.9818    0.2791    0.0000 S   0  0  0  0  0  0  0  0  0  0  0  0
   -5.4969    0.9465    0.0000 C   0  0  0  0  0  0  0  0  0  0  0  0
   -5.9817    1.6139    0.0000 C   0  0  0  0  0  0  0  0  0  0  0  0
   -8.1747    1.9424    0.0000 O   0  0  0  0  0  0  0  0  0  0  0  0
   -6.7664   -0.2910    0.0000 H   0  0  0  0  0  0  0  0  0  0  0  0
   -5.7268    2.3985    0.0000 C   0  0  0  0  0  0  0  0  0  0  0  0
   -6.2788    3.0116    0.0000 O   0  0  0  0  0  0  0  0  0  0  0  0
   -4.9198    2.5700    0.0000 O   0  0  0  0  0  0  0  0  0  0  0  0
   -8.4164    0.5340    0.0000 N   0  0  0  0  0  0  0  0  0  0  0  0
   -4.9135    1.5299    0.0000 C   0  0  0  0  0  0  0  0  0  0  0  0
   -4.7824    0.5340    0.0000 C   0  0  0  0  0  0  0  0  0  0  0  0
   -9.1308    0.9465    0.0000 C   0  0  0  0  0  0  0  0  0  0  0  0
   -9.8453    0.5340    0.0000 C   0  0  0  0  0  0  0  0  0  0  0  0
   -9.1308    1.7715    0.0000 O   0  0  0  0  0  0  0  0  0  0  0  0
  -10.5598    0.9465    0.0000 N   0  0  0  0  0  0  0  0  0  0  0  0
  -11.2742    0.5340    0.0000 C   0  0  0  0  0  0  0  0  0  0  0  0
   -9.8453   -0.2910    0.0000 C   0  0  0  0  0  0  0  0  0  0  0  0
  -11.9887    0.9465    0.0000 N   0  0  0  0  0  0  0  0  0  0  0  0
  -11.2742   -0.2910    0.0000 O   0  0  0  0  0  0  0  0  0  0  0  0
  -12.2844    1.7167    0.0000 C   0  0  0  0  0  0  0  0  0  0  0  0
  -13.1082    1.6735    0.0000 C   0  0  0  0  0  0  0  0  0  0  0  0
  -13.3217    0.8766    0.0000 N   0  0  0  0  0  0  0  0  0  0  0  0
  -12.6299    0.4273    0.0000 C   0  0  0  0  0  0  0  0  0  0  0  0
  -14.0919    0.5810    0.0000 S   0  0  0  0  0  0  0  0  0  0  0  0
  -14.2210   -0.2339    0.0000 O   0  0  0  0  0  0  0  0  0  0  0  0
  -14.5044    1.2954    0.0000 C   0  0  0  0  0  0  0  0  0  0  0  0
  -13.5086   -0.0024    0.0000 O   0  0  0  0  0  0  0  0  0  0  0  0
  -10.5598   -0.7035    0.0000 C   0  0  0  0  0  0  0  0  0  0  0  0
  -10.5598   -1.5285    0.0000 C   0  0  0  0  0  0  0  0  0  0  0  0
   -9.8453   -1.9410    0.0000 C   0  0  0  0  0  0  0  0  0  0  0  0
   -9.1308   -1.5285    0.0000 C   0  0  0  0  0  0  0  0  0  0  0  0
   -9.1308   -0.7035    0.0000 C   0  0  0  0  0  0  0  0  0  0  0  0
  -12.5867   -0.3965    0.0000 O   0  0  0  0  0  0  0  0  0  0  0  0
  1  2  1  0
  2  3  1  0
  3  4  1  0
  4  5  1  0
  1  4  1  0
  1  7  1  0
  5  6  1  0
  6  7  1  0
  2  8  2  0
  4  9  1  1
  7 10  1  1
 10 11  1  0
 10 12  2  0
  3 13  1  6
  6 14  1  0
  6 15  1  0
 13 16  1  0
 16 17  1  0
 16 18  2  0
 17 19  1  0
 19 20  1  0
 17 21  1  1
 20 22  1  0
 20 23  2  0
 22 24  1  0
 22 27  1  0
 24 25  1  0
 25 26  1  0
 26 27  1  0
 26 28  1  0
 28 29  2  0
 28 30  1  0
 28 31  2  0
 21 32  1  0
 21 36  2  0
 32 33  2  0
 33 34  1  0
 34 35  2  0
 35 36  1  0
 27 37  2  0
M  END

> <chembl_id>
CHEMBL1731

> <chembl_pref_name>
MEZLOCILLIN

$$$$

     RDKit          2D

 27 29  0  0  0  0  0  0  0  0999 V2000
    7.9986  -21.8916    0.0000 C   0  0  0  0  0  0  0  0  0  0  0  0
    7.9974  -22.7190    0.0000 C   0  0  0  0  0  0  0  0  0  0  0  0
    8.7122  -23.1319    0.0000 C   0  0  0  0  0  0  0  0  0  0  0  0
    9.4287  -22.7185    0.0000 C   0  0  0  0  0  0  0  0  0  0  0  0
    9.4258  -21.8880    0.0000 C   0  0  0  0  0  0  0  0  0  0  0  0
    8.7104  -21.4789    0.0000 C   0  0  0  0  0  0  0  0  0  0  0  0
   10.1387  -21.4728    0.0000 C   0  0  0  0  0  0  0  0  0  0  0  0
   10.8547  -21.8826    0.0000 C   0  0  0  0  0  0  0  0  0  0  0  0
   11.5677  -21.4674    0.0000 N   0  0  0  0  0  0  0  0  0  0  0  0
   10.8579  -22.7076    0.0000 O   0  0  0  0  0  0  0  0  0  0  0  0
   12.2837  -21.8772    0.0000 C   0  0  0  0  0  0  0  0  0  0  0  0
   12.4992  -22.6710    0.0000 C   0  0  0  0  0  0  0  0  0  0  0  0
   12.0892  -23.3869    0.0000 O   0  0  0  0  0  0  0  0  0  0  0  0
   13.0787  -21.6584    0.0000 C   0  0  0  0  0  0  0  0  0  0  0  0
   13.2945  -22.4506    0.0000 N   0  0  0  0  0  0  0  0  0  0  0  0
   14.1146  -22.4902    0.0000 C   0  0  0  0  0  0  0  0  0  0  0  0
   14.4057  -21.7224    0.0000 C   0  0  0  0  0  0  0  0  0  0  0  0
   13.7655  -21.2084    0.0000 S   0  0  0  0  0  0  0  0  0  0  0  0
   10.1355  -20.6459    0.0000 C   0  0  0  0  0  0  0  0  0  0  0  0
   10.8484  -20.2307    0.0000 O   0  0  0  0  0  0  0  0  0  0  0  0
    9.4194  -20.2361    0.0000 O   0  0  0  0  0  0  0  0  0  0  0  0
   14.8125  -21.0042    0.0000 C   0  0  0  0  0  0  0  0  0  0  0  0
   15.1167  -22.1333    0.0000 C   0  0  0  0  0  0  0  0  0  0  0  0
   14.5695  -23.1810    0.0000 C   0  0  0  0  0  0  0  0  0  0  0  0
   14.1980  -23.9176    0.0000 O   0  0  0  0  0  0  0  0  0  0  0  0
   15.3932  -23.1344    0.0000 O   0  0  0  0  0  0  0  0  0  0  0  0
   12.8583  -20.8583    0.0000 H   0  0  0  0  0  0  0  0  0  0  0  0
  6  1  1  0
 12 13  2  0
 14 15  1  0
  1  2  2  0
  5  7  1  0
  3  4  2  0
  7  8  1  0
 15 16  1  0
 16 17  1  0
 17 18  1  0
 18 14  1  0
  8  9  1  0
  4  5  1  0
  8 10  2  0
 19 20  1  0
 19 21  2  0
  7 19  1  0
  2  3  1  0
 17 22  1  0
 11  9  1  1
 17 23  1  0
 11 12  1  0
  5  6  2  0
 12 15  1  0
 24 25  1  0
 24 26  2  0
 16 24  1  6
 14 11  1  0
 14 27  1  6
M  END

> <chembl_id>
CHEMBL1214

> <chembl_pref_name>
CARBENICILLIN

$$$$

     RDKit          2D

 24 25  0  0  0  0  0  0  0  0999 V2000
    5.1699   -2.9207    0.0000 Cl  0  0  0  0  0  0  0  0  0  0  0  0
    3.7409   -5.3957    0.0000 Cl  0  0  0  0  0  0  0  0  0  0  0  0
    2.3120   -2.9207    0.0000 O   0  0  0  0  0  0  0  0  0  0  0  0
    2.3120    0.3793    0.0000 C   0  0  0  0  0  0  0  0  0  0  0  0
    2.3120   -0.4457    0.0000 C   0  0  0  0  0  0  0  0  0  0  0  0
    3.0265   -1.6832    0.0000 C   0  0  0  0  0  0  0  0  0  0  0  0
    3.0265   -0.8582    0.0000 C   0  0  0  0  0  0  0  0  0  0  0  0
    2.3120   -2.0957    0.0000 C   0  0  0  0  0  0  0  0  0  0  0  0
    3.7409   -2.9207    0.0000 C   0  0  0  0  0  0  0  0  0  0  0  0
    2.3120    1.2043    0.0000 C   0  0  0  0  0  0  0  0  0  0  0  0
    3.7409   -2.0957    0.0000 C   0  0  0  0  0  0  0  0  0  0  0  0
    1.5975   -0.8582    0.0000 C   0  0  0  0  0  0  0  0  0  0  0  0
    1.5975   -1.6832    0.0000 C   0  0  0  0  0  0  0  0  0  0  0  0
    1.5975    1.6168    0.0000 C   0  0  0  0  0  0  0  0  0  0  0  0
    4.4554   -3.3332    0.0000 C   0  0  0  0  0  0  0  0  0  0  0  0
    3.1370    0.3793    0.0000 C   0  0  0  0  0  0  0  0  0  0  0  0
    1.4870    0.3793    0.0000 C   0  0  0  0  0  0  0  0  0  0  0  0
    3.0265   -3.3332    0.0000 C   0  0  0  0  0  0  0  0  0  0  0  0
    4.4554   -4.1582    0.0000 C   0  0  0  0  0  0  0  0  0  0  0  0
    3.7409   -4.5707    0.0000 C   0  0  0  0  0  0  0  0  0  0  0  0
    3.0265   -4.1582    0.0000 C   0  0  0  0  0  0  0  0  0  0  0  0
    0.8831    2.0293    0.0000 C   0  0  0  0  0  0  0  0  0  0  0  0
    2.0100    2.3312    0.0000 C   0  0  0  0  0  0  0  0  0  0  0  0
    1.1850    0.9023    0.0000 C   0  0  0  0  0  0  0  0  0  0  0  0
  1 15  1  0
  2 20  1  0
  3  8  1  0
  4  5  1  0
  4 10  1  0
  4 16  1  0
  4 17  1  0
  5  7  1  0
  5 12  2  0
  6  7  2  0
  6  8  1  0
  6 11  1  0
  8 13  2  0
  9 11  1  0
  9 15  2  0
  9 18  1  0
 10 14  1  0
 12 13  1  0
 14 22  1  0
 14 23  1  0
 14 24  1  0
 15 19  1  0
 18 21  2  0
 19 20  2  0
 20 21  1  0
M  END

> <chembl_id>
CHEMBL1476605

> <chembl_pref_name>
CLOFOCTOL

$$$$

     RDKit          2D

 29 30  0  0  0  0  0  0  0  0999 V2000
   15.2582   -8.2877    0.0000 O   0  0  0  0  0  0  0  0  0  0  0  0
   17.8586   -6.6956    0.0000 N   0  0  0  0  0  0  0  0  0  0  0  0
   17.0240   -6.6956    0.0000 C   0  0  0  0  0  0  0  0  0  0  0  0
   17.0240   -5.8417    0.0000 C   0  0  0  0  0  0  0  0  0  0  0  0
   17.8586   -5.8417    0.0000 C   0  0  0  0  0  0  0  0  0  0  0  0
   18.5727   -7.0864    0.0000 C   0  0  0  0  0  0  0  0  0  0  0  0
   16.3003   -5.3785    0.0000 N   0  0  0  0  0  0  0  0  0  0  0  0
   18.5727   -5.3930    0.0000 S   0  0  0  0  0  0  0  0  0  0  0  0
   15.5621   -5.7983    0.0000 C   0  0  0  0  0  0  0  0  0  0  0  0
   19.2915   -6.6956    0.0000 C   0  0  0  0  0  0  0  0  0  0  0  0
   18.5727   -7.9114    0.0000 C   0  0  0  0  0  0  0  0  0  0  0  0
   14.8384   -5.3785    0.0000 C   0  0  0  0  0  0  0  0  0  0  0  0
   19.2915   -5.8417    0.0000 C   0  0  0  0  0  0  0  0  0  0  0  0
   16.4595   -7.2601    0.0000 O   0  0  0  0  0  0  0  0  0  0  0  0
   20.0056   -7.0864    0.0000 C   0  0  0  0  0  0  0  0  0  0  0  0
   15.5621   -6.6329    0.0000 O   0  0  0  0  0  0  0  0  0  0  0  0
   14.1388   -5.8272    0.0000 C   0  0  0  0  0  0  0  0  0  0  0  0
   17.9069   -8.3890    0.0000 O   0  0  0  0  0  0  0  0  0  0  0  0
   20.7437   -6.6377    0.0000 C   0  0  0  0  0  0  0  0  0  0  0  0
   13.4634   -5.4460    0.0000 C   0  0  0  0  0  0  0  0  0  0  0  0
   14.1388   -6.6039    0.0000 C   0  0  0  0  0  0  0  0  0  0  0  0
   14.8384   -4.4956    0.0000 N   0  0  0  0  0  0  0  0  0  0  0  0
   19.2770   -8.3456    0.0000 O   0  0  0  0  0  0  0  0  0  0  0  0
   12.7928   -6.6039    0.0000 C   0  0  0  0  0  0  0  0  0  0  0  0
   13.4634   -6.9947    0.0000 C   0  0  0  0  0  0  0  0  0  0  0  0
   12.7928   -5.8272    0.0000 C   0  0  0  0  0  0  0  0  0  0  0  0
   12.2332   -6.9417    0.0000 O   0  0  0  0  0  0  0  0  0  0  0  0
   17.8490   -5.0167    0.0000 H   0  0  0  0  0  0  0  0  0  0  0  0
   21.4702   -7.0286    0.0000 C   0  0  0  0  0  0  0  0  0  0  0  0
  3  2  1  0
  4  5  1  0
  5  2  1  0
  6  2  1  0
  4  7  1  1
  8  5  1  0
  9  7  1  0
 10  6  2  0
 11  6  1  0
 12  9  1  0
 13 10  1  0
 14  3  2  0
 15 10  1  0
 16  9  2  0
 17 12  1  0
 18 11  2  0
 19 15  2  3
 20 17  1  0
 21 17  2  0
 12 22  1  1
 23 11  1  0
 24 25  2  0
 25 21  1  0
 26 20  2  0
 27 24  1  0
  5 28  1  6
  3  4  1  0
  8 13  1  0
 26 24  1  0
 19 29  1  0
M  END

> <chembl_id>
CHEMBL3184906

> <chembl_pref_name>
CEFPROZIL

$$$$

     RDKit          2D

 27 29  0  0  1  0  0  0  0  0999 V2000
    4.2250   -6.1167    0.0000 N   0  0  0  0  0  0  0  0  0  0  0  0
    3.5042   -6.1167    0.0000 C   0  0  0  0  0  0  0  0  0  0  0  0
    4.2167   -5.4000    0.0000 C   0  0  0  0  0  0  0  0  0  0  0  0
    3.5042   -5.4042    0.0000 C   0  0  0  0  0  0  0  0  0  0  0  0
    4.8375   -6.4667    0.0000 C   0  0  0  0  0  0  0  0  0  0  0  0
    4.8292   -5.0542    0.0000 S   0  0  0  0  0  0  0  0  0  0  0  0
    5.4292   -6.1167    0.0000 C   0  0  0  0  0  0  0  0  0  0  0  0
    2.8917   -5.0542    0.0000 N   0  0  0  0  0  0  0  0  0  0  0  0
    4.8417   -7.1792    0.0000 C   0  0  0  0  0  0  0  0  0  0  0  0
    2.2875   -5.4125    0.0000 C   0  0  0  0  0  0  0  0  0  0  0  0
    1.6542   -5.0625    0.0000 C   0  0  0  0  0  0  0  0  0  0  0  0
    1.0375   -5.4292    0.0000 C   0  0  0  0  0  0  0  0  0  0  0  0
    5.4292   -5.4042    0.0000 C   0  0  0  0  0  0  0  0  0  0  0  0
    3.0000   -6.6125    0.0000 O   0  0  0  0  0  0  0  0  0  0  0  0
    0.8417   -6.1125    0.0000 S   0  0  0  0  0  0  0  0  0  0  0  0
    6.0542   -6.4667    0.0000 C   0  0  0  0  0  0  0  0  0  0  0  0
    7.2792   -6.4625    0.0000 C   0  0  0  0  0  0  0  0  0  0  0  0
    5.4625   -7.5375    0.0000 O   0  0  0  0  0  0  0  0  0  0  0  0
    0.1292   -6.1125    0.0000 C   0  0  0  0  0  0  0  0  0  0  0  0
    4.2417   -7.5375    0.0000 O   0  0  0  0  0  0  0  0  0  0  0  0
    0.4625   -5.0167    0.0000 C   0  0  0  0  0  0  0  0  0  0  0  0
    2.2875   -6.1292    0.0000 O   0  0  0  0  0  0  0  0  0  0  0  0
    6.6625   -6.1167    0.0000 O   0  0  0  0  0  0  0  0  0  0  0  0
   -0.1000   -5.4417    0.0000 C   0  0  0  0  0  0  0  0  0  0  0  0
    7.3042   -7.1667    0.0000 O   0  0  0  0  0  0  0  0  0  0  0  0
    7.9000   -6.0875    0.0000 C   0  0  0  0  0  0  0  0  0  0  0  0
    4.2167   -4.6917    0.0000 H   0  0  0  0  0  0  0  0  0  0  0  0
  2  1  1  0
  3  1  1  0
  4  3  1  0
  5  1  1  0
  6  3  1  0
  7  5  2  0
  4  8  1  1
  9  5  1  0
 10  8  1  0
 11 10  1  0
 12 11  1  0
 13  7  1  0
 14  2  2  0
 15 12  1  0
 16  7  1  0
 17 23  1  0
 18  9  1  0
 19 15  1  0
 20  9  2  0
 21 12  2  0
 22 10  2  0
 23 16  1  0
 24 21  1  0
 25 17  2  0
 26 17  1  0
  3 27  1  6
  4  2  1  0
 13  6  1  0
 19 24  2  0
M  END

> <chembl_id>
CHEMBL617

> <chembl_pref_name>
CEPHALOTHIN

$$$$

     RDKit          2D

 33 35  0  0  1  0  0  0  0  0999 V2000
    0.6667    0.2375    0.0000 C   0  0  0  0  0  0  0  0  0  0  0  0
    1.4917   -0.5875    0.0000 N   0  0  0  0  0  0  0  0  0  0  0  0
    0.6667   -0.5875    0.0000 C   0  0  0  0  0  0  0  0  0  0  0  0
    1.4917    0.2375    0.0000 C   0  0  0  0  0  0  0  0  0  0  0  0
    4.3500   -2.2542    0.0000 C   0  0  0  0  0  0  0  0  0  0  0  0
    2.2042   -1.0000    0.0000 C   0  0  0  0  0  0  0  0  0  0  0  0
    4.4292   -3.0792    0.0000 N   0  0  0  0  0  0  0  0  0  0  0  0
    5.1042   -1.9292    0.0000 N   0  0  0  0  0  0  0  0  0  0  0  0
    5.6500   -2.5417    0.0000 N   0  0  0  0  0  0  0  0  0  0  0  0
    5.2292   -3.2542    0.0000 N   0  0  0  0  0  0  0  0  0  0  0  0
    2.9167   -0.5875    0.0000 C   0  0  0  0  0  0  0  0  0  0  0  0
    0.0875    0.8208    0.0000 N   0  0  0  0  0  0  0  0  0  0  0  0
    2.2042    0.6500    0.0000 O   0  0  0  0  0  0  0  0  0  0  0  0
    2.2042   -1.8250    0.0000 C   0  0  0  0  0  0  0  0  0  0  0  0
    3.6375   -1.8375    0.0000 S   0  0  0  0  0  0  0  0  0  0  0  0
    0.3000    1.6083    0.0000 C   0  0  0  0  0  0  0  0  0  0  0  0
    2.9167    0.2375    0.0000 C   0  0  0  0  0  0  0  0  0  0  0  0
    0.0792   -1.1667    0.0000 O   0  0  0  0  0  0  0  0  0  0  0  0
    3.6417   -1.0042    0.0000 C   0  0  0  0  0  0  0  0  0  0  0  0
   -0.6500    3.5833    0.0000 C   0  0  0  0  0  0  0  0  0  0  0  0
    0.6667    1.0583    0.0000 O   0  0  0  0  0  0  0  0  0  0  0  0
   -0.0708    2.9875    0.0000 S   0  0  0  0  0  0  0  0  0  0  0  0
    1.4917   -2.2375    0.0000 O   0  0  0  0  0  0  0  0  0  0  0  0
    3.8125   -3.6250    0.0000 C   0  0  0  0  0  0  0  0  0  0  0  0
    1.1000    1.8208    0.0000 O   0  0  0  0  0  0  0  0  0  0  0  0
   -0.2833    2.1958    0.0000 C   0  0  0  0  0  0  0  0  0  0  0  0
   -0.5583    4.4292    0.0000 F   0  0  0  0  0  0  0  0  0  0  0  0
   -1.5083    3.4958    0.0000 F   0  0  0  0  0  0  0  0  0  0  0  0
    2.9167   -2.2375    0.0000 O   0  0  0  0  0  0  0  0  0  0  0  0
    3.4375   -5.0000    0.0000 O   0  0  0  0  0  0  0  0  0  0  0  0
    4.0250   -4.4167    0.0000 C   0  0  0  0  0  0  0  0  0  0  0  0
    1.4625    1.2708    0.0000 C   0  0  0  0  0  0  0  0  0  0  0  0
    1.2323    1.2033    0.0000 H   0  0  0  0  0  0  0  0  0  0  0  0
  2  4  1  0
  3  1  1  0
  4  1  1  0
  5 15  1  0
  6  2  1  0
  7  5  1  0
  8  5  2  0
  9  8  1  0
 10  7  1  0
 11 17  1  0
  1 12  1  1
  4 13  1  0
 14  6  1  0
 15 19  1  0
 16 12  1  0
 17 13  1  0
 18  3  2  0
 19 11  1  0
 20 22  1  0
  1 21  1  0
 22 26  1  0
 23 14  2  0
 24  7  1  0
 25 16  2  0
 26 16  1  0
 27 20  1  0
 28 20  1  0
 29 14  1  0
 30 31  1  0
 31 24  1  0
 32 21  1  0
  3  2  1  0
  6 11  2  0
 10  9  2  0
  4 33  1  6
M  END

> <chembl_id>
CHEMBL15413

> <chembl_pref_name>
FLOMOXEF

$$$$

     RDKit          2D

 30 31  0  0  1  0  0  0  0  0999 V2000
    1.1667   -1.1000    0.0000 N   0  0  0  0  0  0  0  0  0  0  0  0
    0.2917   -1.1000    0.0000 C   0  0  0  0  0  0  0  0  0  0  0  0
    0.2917   -0.2000    0.0000 C   0  0  0  0  0  0  0  0  0  0  0  0
    1.1667   -0.2000    0.0000 C   0  0  0  0  0  0  0  0  0  0  0  0
    1.9167   -1.5042    0.0000 S   0  0  0  0  0  0  0  0  0  0  0  0
   -2.6958   -0.2000    0.0000 C   0  0  0  0  0  0  0  0  0  0  0  0
   -1.9750    0.2583    0.0000 C   0  0  0  0  0  0  0  0  0  0  0  0
   -2.9583   -1.0500    0.0000 N   0  0  0  0  0  0  0  0  0  0  0  0
   -0.4583    0.2583    0.0000 N   0  0  0  0  0  0  0  0  0  0  0  0
   -1.2375   -0.2000    0.0000 C   0  0  0  0  0  0  0  0  0  0  0  0
   -3.8333   -1.0500    0.0000 C   0  0  0  0  0  0  0  0  0  0  0  0
   -3.4000    0.3083    0.0000 C   0  0  0  0  0  0  0  0  0  0  0  0
   -4.1083   -0.2000    0.0000 S   0  0  0  0  0  0  0  0  0  0  0  0
    1.9167    0.2583    0.0000 C   0  0  0  0  0  0  0  0  0  0  0  0
    3.4292    0.2458    0.0000 C   0  0  0  0  0  0  0  0  0  0  0  0
    2.6792   -1.1000    0.0000 O   0  0  0  0  0  0  0  0  0  0  0  0
   -1.9750    1.0000    0.0000 N   0  0  0  0  0  0  0  0  0  0  0  0
   -0.1958   -1.4542    0.0000 O   0  0  0  0  0  0  0  0  0  0  0  0
   -0.4875    2.7083    0.0000 C   0  0  0  0  0  0  0  0  0  0  0  0
    2.6167   -1.9792    0.0000 O   0  0  0  0  0  0  0  0  0  0  0  0
    1.9042   -2.3667    0.0000 O   0  0  0  0  0  0  0  0  0  0  0  0
   -1.2375   -0.8667    0.0000 O   0  0  0  0  0  0  0  0  0  0  0  0
    2.6792   -0.2000    0.0000 O   0  0  0  0  0  0  0  0  0  0  0  0
   -1.2458    2.3083    0.0000 C   0  0  0  0  0  0  0  0  0  0  0  0
    3.4292    1.0250    0.0000 O   0  0  0  0  0  0  0  0  0  0  0  0
    0.1917    2.3208    0.0000 O   0  0  0  0  0  0  0  0  0  0  0  0
   -1.2458    1.4375    0.0000 O   0  0  0  0  0  0  0  0  0  0  0  0
   -0.5000    3.4708    0.0000 O   0  0  0  0  0  0  0  0  0  0  0  0
   -4.3458   -1.7667    0.0000 N   0  0  0  0  0  0  0  0  0  0  0  0
    4.1875   -0.1875    0.0000 N   0  0  0  0  0  0  0  0  0  0  0  0
  2  1  1  0
  3  4  1  0
  4  1  1  0
  5  1  1  0
  6  7  1  0
  7 10  1  0
  8  6  1  0
  3  9  1  1
 10  9  1  0
 11  8  2  0
 12  6  2  0
 13 12  1  0
  4 14  1  1
 15 23  1  0
 16  5  1  0
 17  7  2  0
 18  2  2  0
 19 24  1  0
 20  5  2  0
 21  5  2  0
 22 10  2  0
 23 14  1  0
 24 27  1  0
 25 15  2  0
 26 19  1  0
 27 17  1  0
 28 19  2  0
 29 11  1  0
 30 15  1  0
  2  3  1  0
 11 13  1  0
M  END

> <chembl_id>
CHEMBL1614658

> <chembl_pref_name>
CARUMONAM

$$$$

     RDKit          2D

 17 18  0  0  0  0  0  0  0  0999 V2000
    2.5625   -0.8250    0.0000 S   0  0  0  0  0  0  0  0  0  0  0  0
    3.7917   -0.1042    0.0000 C   0  0  0  0  0  0  0  0  0  0  0  0
    3.3875   -0.8250    0.0000 N   0  0  0  0  0  0  0  0  0  0  0  0
    3.4542    0.6458    0.0000 S   0  0  0  0  0  0  0  0  0  0  0  0
    4.6125   -0.0250    0.0000 N   0  0  0  0  0  0  0  0  0  0  0  0
    4.7792    0.7833    0.0000 N   0  0  0  0  0  0  0  0  0  0  0  0
    4.0667    1.1958    0.0000 C   0  0  0  0  0  0  0  0  0  0  0  0
    1.7375   -0.8250    0.0000 C   0  0  0  0  0  0  0  0  0  0  0  0
    2.5542    0.0000    0.0000 O   0  0  0  0  0  0  0  0  0  0  0  0
    2.5542   -1.6500    0.0000 O   0  0  0  0  0  0  0  0  0  0  0  0
    1.3167   -0.1042    0.0000 C   0  0  0  0  0  0  0  0  0  0  0  0
    1.3167   -1.5375    0.0000 C   0  0  0  0  0  0  0  0  0  0  0  0
    0.0875   -0.8167    0.0000 C   0  0  0  0  0  0  0  0  0  0  0  0
   -0.7375   -0.8167    0.0000 N   0  0  0  0  0  0  0  0  0  0  0  0
    0.5000   -0.1042    0.0000 C   0  0  0  0  0  0  0  0  0  0  0  0
    0.5000   -1.5375    0.0000 C   0  0  0  0  0  0  0  0  0  0  0  0
    3.9792    2.0208    0.0000 C   0  0  0  0  0  0  0  0  0  0  0  0
  2  3  1  0
  3  1  1  0
  4  2  1  0
  5  2  2  0
  6  5  1  0
  7  4  1  0
  8  1  1  0
  9  1  2  0
 10  1  2  0
 11  8  1  0
 12  8  2  0
 13 16  2  0
 14 13  1  0
 15 11  2  0
 16 12  1  0
 17  7  1  0
 13 15  1  0
  7  6  2  0
M  END

> <chembl_id>
CHEMBL1191

> <chembl_pref_name>
SULFAMETHIZOLE

$$$$

     RDKit          2D

 32 36  0  0  0  0  0  0  0  0999 V2000
    5.3542   -2.8000    0.0000 C   0  0  0  0  0  0  0  0  0  0  0  0
    4.6292   -3.2167    0.0000 N   0  0  0  0  0  0  0  0  0  0  0  0
    5.3542   -1.9667    0.0000 C   0  0  0  0  0  0  0  0  0  0  0  0
    5.8792   -3.3417    0.0000 S   0  0  0  0  0  0  0  0  0  0  0  0
    3.9125   -2.7917    0.0000 C   0  0  0  0  0  0  0  0  0  0  0  0
    3.9167   -1.9667    0.0000 C   0  0  0  0  0  0  0  0  0  0  0  0
    4.6292   -1.5500    0.0000 C   0  0  0  0  0  0  0  0  0  0  0  0
    5.1875   -3.7792    0.0000 C   0  0  0  0  0  0  0  0  0  0  0  0
   -1.1083   -4.0250    0.0000 C   0  0  0  0  0  0  0  0  0  0  0  0
   -1.9875   -3.0167    0.0000 C   0  0  0  0  0  0  0  0  0  0  0  0
    3.1917   -3.2167    0.0000 C   0  0  0  0  0  0  0  0  0  0  0  0
   -1.1833   -3.2000    0.0000 O   0  0  0  0  0  0  0  0  0  0  0  0
    2.4792   -2.8000    0.0000 C   0  0  0  0  0  0  0  0  0  0  0  0
   -1.8625   -4.3500    0.0000 C   0  0  0  0  0  0  0  0  0  0  0  0
   -2.4083   -3.7292    0.0000 O   0  0  0  0  0  0  0  0  0  0  0  0
    3.1917   -1.5542    0.0000 C   0  0  0  0  0  0  0  0  0  0  0  0
    1.7625   -3.2167    0.0000 N   0  0  0  0  0  0  0  0  0  0  0  0
    6.0750   -1.5542    0.0000 C   0  0  0  0  0  0  0  0  0  0  0  0
    2.4792   -1.9667    0.0000 C   0  0  0  0  0  0  0  0  0  0  0  0
    0.3292   -4.0375    0.0000 N   0  0  0  0  0  0  0  0  0  0  0  0
   -0.3958   -4.4417    0.0000 C   0  0  0  0  0  0  0  0  0  0  0  0
    4.6292   -0.7167    0.0000 O   0  0  0  0  0  0  0  0  0  0  0  0
   -2.4083   -2.3042    0.0000 O   0  0  0  0  0  0  0  0  0  0  0  0
    1.7667   -4.0417    0.0000 C   0  0  0  0  0  0  0  0  0  0  0  0
    1.0500   -2.7917    0.0000 C   0  0  0  0  0  0  0  0  0  0  0  0
    6.0750   -0.7250    0.0000 O   0  0  0  0  0  0  0  0  0  0  0  0
    0.3292   -3.2042    0.0000 C   0  0  0  0  0  0  0  0  0  0  0  0
    1.0417   -4.4417    0.0000 C   0  0  0  0  0  0  0  0  0  0  0  0
    1.7625   -1.5542    0.0000 F   0  0  0  0  0  0  0  0  0  0  0  0
    6.7917   -1.9667    0.0000 O   0  0  0  0  0  0  0  0  0  0  0  0
    5.1792   -4.6125    0.0000 C   0  0  0  0  0  0  0  0  0  0  0  0
   -2.0458   -5.1542    0.0000 C   0  0  0  0  0  0  0  0  0  0  0  0
  2  1  1  0
  3  1  2  0
  4  1  1  0
  5  2  1  0
  6  7  1  0
  7  3  1  0
  8  4  1  0
  9 21  1  0
 10 12  1  0
 11  5  2  0
 12  9  1  0
 13 11  1  0
 14  9  2  0
 15 14  1  0
 16  6  2  0
 17 13  1  0
 18  3  1  0
 19 16  1  0
 20 27  1  0
 21 20  1  0
 22  7  2  0
 23 10  2  0
 24 17  1  0
 25 17  1  0
 26 18  2  0
 27 25  1  0
 28 24  1  0
 29 19  1  0
 30 18  1  0
 31  8  1  0
 32 14  1  0
  8  2  1  0
  5  6  1  0
 13 19  2  0
 20 28  1  0
 15 10  1  0
M  END

> <chembl_id>
CHEMBL422648

> <chembl_pref_name>
PRULIFLOXACIN

$$$$

     RDKit          2D

 90 92  0  0  0  0  0  0  0  0999 V2000
   11.3875   -4.0625    0.0000 S   0  0  0  0  0  0  0  0  0  0  0  0
   11.3875   -3.3500    0.0000 O   0  0  0  0  0  0  0  0  0  0  0  0
   11.3875   -4.7667    0.0000 O   0  0  0  0  0  0  0  0  0  0  0  0
   10.6792   -4.0542    0.0000 O   0  0  0  0  0  0  0  0  0  0  0  0
   12.1000   -4.0625    0.0000 O   0  0  0  0  0  0  0  0  0  0  0  0
   -2.4583   -5.3542    0.0000 C   0  0  0  0  0  0  0  0  0  0  0  0
   -1.6000   -3.0625    0.0000 C   0  0  0  0  0  0  0  0  0  0  0  0
   -3.1583   -5.3542    0.0000 C   0  0  0  0  0  0  0  0  0  0  0  0
   -1.0000   -2.7167    0.0000 C   0  0  0  0  0  0  0  0  0  0  0  0
   -1.6000   -1.6667    0.0000 C   0  0  0  0  0  0  0  0  0  0  0  0
   -2.2375   -4.6917    0.0000 C   0  0  0  0  0  0  0  0  0  0  0  0
   -1.1833   -5.5250    0.0000 C   0  0  0  0  0  0  0  0  0  0  0  0
   -1.0000   -2.0167    0.0000 C   0  0  0  0  0  0  0  0  0  0  0  0
   -0.5833   -5.8667    0.0000 C   0  0  0  0  0  0  0  0  0  0  0  0
   -2.2083   -2.7167    0.0000 C   0  0  0  0  0  0  0  0  0  0  0  0
   -2.2083   -2.0167    0.0000 C   0  0  0  0  0  0  0  0  0  0  0  0
    0.0250   -5.5250    0.0000 C   0  0  0  0  0  0  0  0  0  0  0  0
   -1.9083   -5.7792    0.0000 O   0  0  0  0  0  0  0  0  0  0  0  0
   -1.6333   -4.3417    0.0000 O   0  0  0  0  0  0  0  0  0  0  0  0
   -1.1833   -4.8292    0.0000 O   0  0  0  0  0  0  0  0  0  0  0  0
   -2.8083   -4.2792    0.0000 O   0  0  0  0  0  0  0  0  0  0  0  0
    0.0250   -4.8292    0.0000 C   0  0  0  0  0  0  0  0  0  0  0  0
   -0.5833   -4.4750    0.0000 C   0  0  0  0  0  0  0  0  0  0  0  0
   -3.3708   -4.6917    0.0000 C   0  0  0  0  0  0  0  0  0  0  0  0
   -0.3958   -3.0667    0.0000 N   0  0  0  0  0  0  0  0  0  0  0  0
   -1.6000   -0.9667    0.0000 N   0  0  0  0  0  0  0  0  0  0  0  0
   -0.9958   -0.6167    0.0000 C   0  0  0  0  0  0  0  0  0  0  0  0
    0.2042   -2.7167    0.0000 C   0  0  0  0  0  0  0  0  0  0  0  0
    0.2125   -2.0250    0.0000 N   0  0  0  0  0  0  0  0  0  0  0  0
   -0.9958    0.0750    0.0000 N   0  0  0  0  0  0  0  0  0  0  0  0
   -3.8333   -5.5375    0.0000 C   0  0  0  0  0  0  0  0  0  0  0  0
   -0.5833   -6.5667    0.0000 N   0  0  0  0  0  0  0  0  0  0  0  0
   -3.1583   -6.0542    0.0000 O   0  0  0  0  0  0  0  0  0  0  0  0
   -0.3958   -1.6750    0.0000 O   0  0  0  0  0  0  0  0  0  0  0  0
   -4.3583   -5.2542    0.0000 O   0  0  0  0  0  0  0  0  0  0  0  0
   -2.8083   -1.6750    0.0000 O   0  0  0  0  0  0  0  0  0  0  0  0
   -2.8083   -3.0667    0.0000 O   0  0  0  0  0  0  0  0  0  0  0  0
    0.6292   -5.8750    0.0000 O   0  0  0  0  0  0  0  0  0  0  0  0
    0.8125   -3.0667    0.0000 N   0  0  0  0  0  0  0  0  0  0  0  0
   -0.3958   -0.9667    0.0000 N   0  0  0  0  0  0  0  0  0  0  0  0
    0.6292   -4.4792    0.0000 O   0  0  0  0  0  0  0  0  0  0  0  0
   -0.5833   -3.7750    0.0000 C   0  0  0  0  0  0  0  0  0  0  0  0
    0.0250   -3.4292    0.0000 O   0  0  0  0  0  0  0  0  0  0  0  0
   -4.0333   -4.4792    0.0000 C   0  0  0  0  0  0  0  0  0  0  0  0
    0.0250   -6.9167    0.0000 C   0  0  0  0  0  0  0  0  0  0  0  0
    6.0125   -5.5292    0.0000 C   0  0  0  0  0  0  0  0  0  0  0  0
    6.9000   -3.0667    0.0000 C   0  0  0  0  0  0  0  0  0  0  0  0
    7.5000   -2.7250    0.0000 C   0  0  0  0  0  0  0  0  0  0  0  0
    5.3167   -5.5417    0.0000 C   0  0  0  0  0  0  0  0  0  0  0  0
    6.9000   -1.6792    0.0000 C   0  0  0  0  0  0  0  0  0  0  0  0
    6.2167   -4.8667    0.0000 C   0  0  0  0  0  0  0  0  0  0  0  0
    7.4250   -5.5417    0.0000 C   0  0  0  0  0  0  0  0  0  0  0  0
    7.5000   -2.0292    0.0000 C   0  0  0  0  0  0  0  0  0  0  0  0
    8.0292   -5.8792    0.0000 C   0  0  0  0  0  0  0  0  0  0  0  0
    6.3042   -2.7250    0.0000 C   0  0  0  0  0  0  0  0  0  0  0  0
    6.3042   -2.0292    0.0000 C   0  0  0  0  0  0  0  0  0  0  0  0
    8.6250   -5.5375    0.0000 C   0  0  0  0  0  0  0  0  0  0  0  0
    6.6917   -5.9917    0.0000 O   0  0  0  0  0  0  0  0  0  0  0  0
    6.9042   -4.3917    0.0000 O   0  0  0  0  0  0  0  0  0  0  0  0
    7.4167   -4.8417    0.0000 O   0  0  0  0  0  0  0  0  0  0  0  0
    5.6500   -4.4667    0.0000 O   0  0  0  0  0  0  0  0  0  0  0  0
    8.6250   -4.8417    0.0000 C   0  0  0  0  0  0  0  0  0  0  0  0
    8.0167   -4.4917    0.0000 C   0  0  0  0  0  0  0  0  0  0  0  0
    5.0917   -4.8875    0.0000 C   0  0  0  0  0  0  0  0  0  0  0  0
    8.1000   -3.0667    0.0000 N   0  0  0  0  0  0  0  0  0  0  0  0
    6.8917   -0.9792    0.0000 N   0  0  0  0  0  0  0  0  0  0  0  0
    8.6917   -2.7167    0.0000 C   0  0  0  0  0  0  0  0  0  0  0  0
    7.4917   -0.6292    0.0000 C   0  0  0  0  0  0  0  0  0  0  0  0
    7.4917    0.0625    0.0000 N   0  0  0  0  0  0  0  0  0  0  0  0
    8.6917   -2.0250    0.0000 N   0  0  0  0  0  0  0  0  0  0  0  0
    8.0250   -6.5750    0.0000 N   0  0  0  0  0  0  0  0  0  0  0  0
    5.4042   -6.1542    0.0000 O   0  0  0  0  0  0  0  0  0  0  0  0
    8.1000   -1.6792    0.0000 O   0  0  0  0  0  0  0  0  0  0  0  0
    5.7000   -3.0667    0.0000 O   0  0  0  0  0  0  0  0  0  0  0  0
    5.7000   -1.6792    0.0000 O   0  0  0  0  0  0  0  0  0  0  0  0
    9.2292   -5.8792    0.0000 O   0  0  0  0  0  0  0  0  0  0  0  0
    8.0917   -0.9792    0.0000 N   0  0  0  0  0  0  0  0  0  0  0  0
    9.3000   -3.0625    0.0000 N   0  0  0  0  0  0  0  0  0  0  0  0
    4.7792   -5.9417    0.0000 C   0  0  0  0  0  0  0  0  0  0  0  0
    9.2250   -4.4917    0.0000 O   0  0  0  0  0  0  0  0  0  0  0  0
    8.0125   -3.9292    0.0000 C   0  0  0  0  0  0  0  0  0  0  0  0
    4.1750   -5.6292    0.0000 O   0  0  0  0  0  0  0  0  0  0  0  0
    8.5125   -3.6667    0.0000 O   0  0  0  0  0  0  0  0  0  0  0  0
    4.4292   -4.6792    0.0000 C   0  0  0  0  0  0  0  0  0  0  0  0
    8.6250   -6.9250    0.0000 C   0  0  0  0  0  0  0  0  0  0  0  0
    2.7667   -3.5792    0.0000 S   0  0  0  0  0  0  0  0  0  0  0  0
    2.7667   -2.9292    0.0000 O   0  0  0  0  0  0  0  0  0  0  0  0
    3.4375   -3.5792    0.0000 O   0  0  0  0  0  0  0  0  0  0  0  0
    2.7292   -4.3375    0.0000 O   0  0  0  0  0  0  0  0  0  0  0  0
    2.0042   -3.6042    0.0000 O   0  0  0  0  0  0  0  0  0  0  0  0
  2  1  2  0
  3  1  2  0
  4  1  1  0
  5  1  1  0
  7 19  1  1
  8  6  1  0
  9  7  1  0
 10 16  1  0
 11  6  1  0
 12 18  1  6
 13  9  1  0
 14 12  1  0
 15  7  1  0
 16 15  1  0
 17 14  1  0
  6 18  1  6
 11 19  1  1
 20 12  1  0
 21 11  1  0
 22 23  1  0
 23 20  1  0
 24  8  1  0
  9 25  1  6
 10 26  1  6
 27 26  1  0
 28 25  1  0
 29 28  2  0
 30 27  2  0
  8 31  1  0
 14 32  1  6
  8 33  1  6
 13 34  1  1
 35 31  2  0
 16 36  1  1
 15 37  1  6
 17 38  1  1
 39 28  1  0
 40 27  1  0
 22 41  1  6
 23 42  1  1
 43 42  1  0
 24 44  1  6
 45 32  1  0
 24 21  1  0
 22 17  1  0
 10 13  1  0
 47 59  1  1
 48 47  1  0
 49 46  1  0
 50 56  1  0
 51 46  1  0
 52 58  1  6
 53 48  1  0
 54 52  1  0
 55 47  1  0
 56 55  1  0
 57 54  1  0
 46 58  1  6
 51 59  1  1
 60 52  1  0
 61 51  1  0
 62 63  1  0
 63 60  1  0
 64 49  1  0
 48 65  1  6
 50 66  1  6
 67 65  1  0
 68 66  1  0
 69 68  2  0
 70 67  2  0
 54 71  1  6
 49 72  1  6
 53 73  1  1
 55 74  1  6
 56 75  1  1
 57 76  1  1
 77 68  1  0
 78 67  1  0
 79 49  1  0
 62 80  1  6
 63 81  1  1
 82 79  1  0
 83 81  1  0
 64 84  1  6
 85 71  1  0
 64 61  1  0
 62 57  1  0
 50 53  1  0
 87 86  2  0
 88 86  2  0
 89 86  1  0
 90 86  1  0
M  END

> <chembl_id>
CHEMBL3833338

> <chembl_pref_name>
STREPTODUOCIN

$$$$

     RDKit          2D

 19 21  0  0  0  0  0  0  0  0999 V2000
    0.7531    0.2218    0.0000 C   0  0  0  0  0  0  0  0  0  0  0  0
    0.7531    1.0468    0.0000 O   0  0  0  0  0  0  0  0  0  0  0  0
    0.0386   -0.1907    0.0000 C   0  0  0  0  0  0  0  0  0  0  0  0
    0.0386   -1.0157    0.0000 C   0  0  0  0  0  0  0  0  0  0  0  0
   -0.6758   -1.4282    0.0000 N   0  0  0  0  0  0  0  0  0  0  0  0
   -0.6758    0.2218    0.0000 C   0  0  0  0  0  0  0  0  0  0  0  0
   -0.6758    1.0468    0.0000 O   0  0  0  0  0  0  0  0  0  0  0  0
   -1.3903   -0.1907    0.0000 C   0  0  0  0  0  0  0  0  0  0  0  0
   -1.3903   -1.0157    0.0000 C   0  0  0  0  0  0  0  0  0  0  0  0
   -2.1048   -1.4282    0.0000 C   0  0  0  0  0  0  0  0  0  0  0  0
   -2.1048    0.2218    0.0000 C   0  0  0  0  0  0  0  0  0  0  0  0
   -2.8193   -1.0157    0.0000 C   0  0  0  0  0  0  0  0  0  0  0  0
   -2.8193   -0.1907    0.0000 C   0  0  0  0  0  0  0  0  0  0  0  0
   -3.6039    0.0642    0.0000 O   0  0  0  0  0  0  0  0  0  0  0  0
   -3.6039   -1.2707    0.0000 O   0  0  0  0  0  0  0  0  0  0  0  0
   -4.0888   -0.6032    0.0000 C   0  0  0  0  0  0  0  0  0  0  0  0
   -0.6758   -2.2532    0.0000 C   0  0  0  0  0  0  0  0  0  0  0  0
   -1.3903   -2.6657    0.0000 C   0  0  0  0  0  0  0  0  0  0  0  0
    1.4676   -0.1907    0.0000 O   0  0  0  0  0  0  0  0  0  0  0  0
  1  2  2  0
  1  3  1  0
  1 19  1  0
  4  3  2  0
  3  6  1  0
  4  5  1  0
  9  5  1  0
 17  5  1  0
  6  7  2  0
  8  6  1  0
  8  9  2  0
  8 11  1  0
 10  9  1  0
 12 10  2  0
 11 13  2  0
 13 12  1  0
 12 15  1  0
 13 14  1  0
 16 14  1  0
 16 15  1  0
 17 18  1  0
M  END

> <chembl_id>
CHEMBL416755

> <chembl_pref_name>
OXOLINIC ACID

$$$$

     RDKit          2D

 11 11  0  0  0  0  0  0  0  0999 V2000
   19.7845  -18.4157    0.0000 C   0  0  0  0  0  0  0  0  0  0  0  0
   19.7834  -19.2352    0.0000 C   0  0  0  0  0  0  0  0  0  0  0  0
   20.4914  -19.6442    0.0000 C   0  0  0  0  0  0  0  0  0  0  0  0
   21.2011  -19.2347    0.0000 C   0  0  0  0  0  0  0  0  0  0  0  0
   21.1982  -18.4121    0.0000 C   0  0  0  0  0  0  0  0  0  0  0  0
   20.4896  -18.0068    0.0000 C   0  0  0  0  0  0  0  0  0  0  0  0
   21.9044  -18.0008    0.0000 C   0  0  0  0  0  0  0  0  0  0  0  0
   22.6137  -18.4067    0.0000 C   0  0  0  0  0  0  0  0  0  0  0  0
   23.3198  -17.9955    0.0000 O   0  0  0  0  0  0  0  0  0  0  0  0
   22.6167  -19.2239    0.0000 O   0  0  0  0  0  0  0  0  0  0  0  0
   21.9013  -17.1836    0.0000 O   0  0  0  0  0  0  0  0  0  0  0  0
  1  2  2  0
  2  3  1  0
  3  4  2  0
  4  5  1  0
  5  6  2  0
  6  1  1  0
  5  7  1  0
  7  8  1  0
  8  9  2  0
  8 10  1  0
  7 11  1  0
M  END

> <chembl_id>
CHEMBL1609

> <chembl_pref_name>
MANDELIC ACID

$$$$

     RDKit          2D

 12 12  0  0  0  0  0  0  0  0999 V2000
    0.7500   -1.0323    0.0000 C   0  0  0  0  0  0  0  0  0  0  0  0
    1.2135    0.3943    0.0000 N   0  0  0  0  0  0  0  0  0  0  0  0
    1.6281   -2.2462    0.0000 N   0  0  0  0  0  0  0  0  0  0  0  0
   -0.7500   -1.0323    0.0000 C   0  0  0  0  0  0  0  0  0  0  0  0
   -1.2135    0.3943    0.0000 N   0  0  0  0  0  0  0  0  0  0  0  0
    0.0000    1.2760    0.0000 C   0  0  0  0  0  0  0  0  0  0  0  0
    2.8218   -2.1229    0.0000 O   0  0  0  0  0  0  0  0  0  0  0  0
    1.1385   -3.3418    0.0000 O   0  0  0  0  0  0  0  0  0  0  0  0
    2.6375    0.8603    0.0000 C   0  0  0  0  0  0  0  0  0  0  0  0
    0.0000    2.4760    0.0000 C   0  0  0  0  0  0  0  0  0  0  0  0
    4.0879    2.7019    0.0000 O   0  0  0  0  0  0  0  0  0  0  0  0
    2.9474    2.3287    0.0000 C   0  0  0  0  0  0  0  0  0  0  0  0
  2  1  1  0
  3  1  1  0
  4  1  2  0
  5  4  1  0
  6  2  1  0
  7  3  1  0
  8  3  2  0
  9  2  1  0
 10  6  1  0
 11 12  1  0
 12  9  1  0
  6  5  2  0
M  CHG  2   3   1   7  -1
M  END

> <chembl_id>
CHEMBL137

> <chembl_pref_name>
METRONIDAZOLE

$$$$

     RDKit          2D

 45 49  0  0  1  0  0  0  0  0999 V2000
    4.1708   -9.7375    0.0000 N   0  0  0  0  0  0  0  0  0  0  0  0
   -0.2250   -9.0292    0.0000 N   0  0  0  0  0  0  0  0  0  0  0  0
    3.4625   -9.7375    0.0000 C   0  0  0  0  0  0  0  0  0  0  0  0
    3.4625   -9.0292    0.0000 C   0  0  0  0  0  0  0  0  0  0  0  0
    4.1750   -9.0292    0.0000 C   0  0  0  0  0  0  0  0  0  0  0  0
   -0.2208   -9.7333    0.0000 C   0  0  0  0  0  0  0  0  0  0  0  0
    0.3917   -8.6750    0.0000 C   0  0  0  0  0  0  0  0  0  0  0  0
    7.2250  -10.1042    0.0000 C   0  0  0  0  0  0  0  0  0  0  0  0
    4.7750  -10.0875    0.0000 C   0  0  0  0  0  0  0  0  0  0  0  0
    7.8000   -9.6875    0.0000 N   0  0  0  0  0  0  0  0  0  0  0  0
    7.4417  -10.7792    0.0000 N   0  0  0  0  0  0  0  0  0  0  0  0
   -0.8375  -10.0833    0.0000 C   0  0  0  0  0  0  0  0  0  0  0  0
    8.1500  -10.7792    0.0000 N   0  0  0  0  0  0  0  0  0  0  0  0
    8.3708  -10.1042    0.0000 N   0  0  0  0  0  0  0  0  0  0  0  0
    2.8417   -8.6750    0.0000 N   0  0  0  0  0  0  0  0  0  0  0  0
    4.7833   -8.6792    0.0000 S   0  0  0  0  0  0  0  0  0  0  0  0
    5.3875   -9.7417    0.0000 C   0  0  0  0  0  0  0  0  0  0  0  0
    1.0042   -9.0292    0.0000 N   0  0  0  0  0  0  0  0  0  0  0  0
    2.2292   -9.0292    0.0000 C   0  0  0  0  0  0  0  0  0  0  0  0
   -1.4500   -9.7292    0.0000 N   0  0  0  0  0  0  0  0  0  0  0  0
    1.6167   -8.6750    0.0000 C   0  0  0  0  0  0  0  0  0  0  0  0
    4.7708  -10.7958    0.0000 C   0  0  0  0  0  0  0  0  0  0  0  0
   -0.8333   -8.6667    0.0000 C   0  0  0  0  0  0  0  0  0  0  0  0
    6.6125   -9.7500    0.0000 S   0  0  0  0  0  0  0  0  0  0  0  0
    5.3917   -9.0375    0.0000 C   0  0  0  0  0  0  0  0  0  0  0  0
    2.9667  -10.2417    0.0000 O   0  0  0  0  0  0  0  0  0  0  0  0
    5.9958  -10.1000    0.0000 C   0  0  0  0  0  0  0  0  0  0  0  0
    0.3958  -10.0875    0.0000 O   0  0  0  0  0  0  0  0  0  0  0  0
    0.3917   -7.9667    0.0000 O   0  0  0  0  0  0  0  0  0  0  0  0
   -1.4458   -9.0208    0.0000 C   0  0  0  0  0  0  0  0  0  0  0  0
   -0.8375  -10.7917    0.0000 O   0  0  0  0  0  0  0  0  0  0  0  0
    1.6167   -7.9667    0.0000 C   0  0  0  0  0  0  0  0  0  0  0  0
    2.2292   -9.7375    0.0000 O   0  0  0  0  0  0  0  0  0  0  0  0
    5.3792  -11.1542    0.0000 O   0  0  0  0  0  0  0  0  0  0  0  0
    4.1542  -11.1458    0.0000 O   0  0  0  0  0  0  0  0  0  0  0  0
    2.2333   -7.6125    0.0000 C   0  0  0  0  0  0  0  0  0  0  0  0
    1.0083   -7.6167    0.0000 C   0  0  0  0  0  0  0  0  0  0  0  0
    7.7958   -8.9792    0.0000 C   0  0  0  0  0  0  0  0  0  0  0  0
    1.6208   -6.5500    0.0000 C   0  0  0  0  0  0  0  0  0  0  0  0
    1.0042   -6.9083    0.0000 C   0  0  0  0  0  0  0  0  0  0  0  0
    2.2333   -6.9042    0.0000 C   0  0  0  0  0  0  0  0  0  0  0  0
   -2.0625  -10.0792    0.0000 C   0  0  0  0  0  0  0  0  0  0  0  0
    1.6167   -5.8417    0.0000 O   0  0  0  0  0  0  0  0  0  0  0  0
   -2.6750   -9.7250    0.0000 C   0  0  0  0  0  0  0  0  0  0  0  0
    4.1667   -8.3167    0.0000 H   0  0  0  0  0  0  0  0  0  0  0  0
  2  7  1  0
  3  1  1  0
  4  5  1  0
  5  1  1  0
  6  2  1  0
  7 18  1  0
  8 24  1  0
  9  1  1  0
 10  8  1  0
 11  8  2  0
 12  6  1  0
 13 11  1  0
 14 10  1  0
  4 15  1  1
 16  5  1  0
 17  9  2  0
 18 21  1  0
 19 15  1  0
 20 12  1  0
 21 19  1  0
 22  9  1  0
 23  2  1  0
 24 27  1  0
 25 16  1  0
 26  3  2  0
 27 17  1  0
 28  6  2  0
 29  7  2  0
 30 23  1  0
 31 12  2  0
 21 32  1  6
 33 19  2  0
 34 22  1  0
 35 22  2  0
 36 32  2  0
 37 32  1  0
 38 10  1  0
 39 40  1  0
 40 37  2  0
 41 36  1  0
 42 20  1  0
 43 39  1  0
 44 42  1  0
  5 45  1  6
  3  4  1  0
 25 17  1  0
 14 13  2  0
 39 41  2  0
 20 30  1  0
M  END

> <chembl_id>
CHEMBL507674

> <chembl_pref_name>
CEFOPERAZONE

$$$$
 
     RDKit          2D

 61 64  0  0  0  0  0  0  0  0999 V2000
    4.9069   -2.8389    0.0000 C   0  0  0  0  0  0  0  0  0  0  0  0
    0.6201   -2.8389    0.0000 C   0  0  0  0  0  0  0  0  0  0  0  0
    2.7635   -1.6014    0.0000 C   0  0  0  0  0  0  0  0  0  0  0  0
    4.9069   -2.0139    0.0000 C   0  0  0  0  0  0  0  0  0  0  0  0
    3.4779   -0.3639    0.0000 C   0  0  0  0  0  0  0  0  0  0  0  0
    2.7635   -0.7764    0.0000 C   0  0  0  0  0  0  0  0  0  0  0  0
   -0.0944   -3.2514    0.0000 C   0  0  0  0  0  0  0  0  0  0  0  0
    2.0490   -2.8389    0.0000 C   0  0  0  0  0  0  0  0  0  0  0  0
    4.1924   -3.2514    0.0000 C   0  0  0  0  0  0  0  0  0  0  0  0
    2.0490   -2.0139    0.0000 C   0  0  0  0  0  0  0  0  0  0  0  0
    4.1924   -4.0764    0.0000 C   0  0  0  0  0  0  0  0  0  0  0  0
    4.1924   -0.7764    0.0000 O   0  0  0  0  0  0  0  0  0  0  0  0
    1.3345   -3.2514    0.0000 O   0  0  0  0  0  0  0  0  0  0  0  0
    1.3345    0.8736    0.0000 C   0  0  0  0  0  0  0  0  0  0  0  0
   -0.8089   -2.8389    0.0000 C   0  0  0  0  0  0  0  0  0  0  0  0
    2.7635   -3.2514    0.0000 C   0  0  0  0  0  0  0  0  0  0  0  0
    4.9069   -4.4889    0.0000 N   0  0  0  0  0  0  0  0  0  0  0  0
    2.0490   -0.3639    0.0000 C   0  0  0  0  0  0  0  0  0  0  0  0
    5.6214   -3.2514    0.0000 O   0  0  0  0  0  0  0  0  0  0  0  0
    1.3345    0.0486    0.0000 C   0  0  0  0  0  0  0  0  0  0  0  0
    0.6201   -2.0139    0.0000 O   0  0  0  0  0  0  0  0  0  0  0  0
    2.7635    0.0486    0.0000 O   0  0  0  0  0  0  0  0  0  0  0  0
    4.1924   -1.6014    0.0000 C   0  0  0  0  0  0  0  0  0  0  0  0
    2.0490    1.2861    0.0000 C   0  0  0  0  0  0  0  0  0  0  0  0
    2.0490   -1.1889    0.0000 O   0  0  0  0  0  0  0  0  0  0  0  0
    2.7635    0.8736    0.0000 C   0  0  0  0  0  0  0  0  0  0  0  0
    5.6214   -4.0764    0.0000 C   0  0  0  0  0  0  0  0  0  0  0  0
    3.4779   -4.4889    0.0000 C   0  0  0  0  0  0  0  0  0  0  0  0
    2.7635   -4.0764    0.0000 C   0  0  0  0  0  0  0  0  0  0  0  0
   -0.8089   -2.0139    0.0000 C   0  0  0  0  0  0  0  0  0  0  0  0
   -1.5234   -3.2514    0.0000 N   0  0  0  0  0  0  0  0  0  0  0  0
    3.4779    0.4611    0.0000 O   0  0  0  0  0  0  0  0  0  0  0  0
   -0.0944   -1.6014    0.0000 C   0  0  0  0  0  0  0  0  0  0  0  0
    5.3441   -1.3143    0.0000 O   0  0  0  0  0  0  0  0  0  0  0  0
   -0.0944   -4.0764    0.0000 O   0  0  0  0  0  0  0  0  0  0  0  0
    2.1960   -3.8505    0.0000 O   0  0  0  0  0  0  0  0  0  0  0  0
    0.5221    0.7303    0.0000 O   0  0  0  0  0  0  0  0  0  0  0  0
    2.0490    2.1111    0.0000 O   0  0  0  0  0  0  0  0  0  0  0  0
    5.7314   -1.9851    0.0000 C   0  0  0  0  0  0  0  0  0  0  0  0
    3.5188   -1.2175    0.0000 C   0  0  0  0  0  0  0  0  0  0  0  0
    3.4779   -2.8389    0.0000 C   0  0  0  0  0  0  0  0  0  0  0  0
    1.3345   -1.6014    0.0000 C   0  0  0  0  0  0  0  0  0  0  0  0
    1.0524    1.6489    0.0000 C   0  0  0  0  0  0  0  0  0  0  0  0
    1.9445   -3.4009    0.0000 C   0  0  0  0  0  0  0  0  0  0  0  0
    6.3358   -4.4889    0.0000 C   0  0  0  0  0  0  0  0  0  0  0  0
    4.9069   -1.1889    0.0000 C   0  0  0  0  0  0  0  0  0  0  0  0
    3.4779    1.2861    0.0000 C   0  0  0  0  0  0  0  0  0  0  0  0
    3.4779   -5.3139    0.0000 C   0  0  0  0  0  0  0  0  0  0  0  0
    7.0503   -4.0764    0.0000 O   0  0  0  0  0  0  0  0  0  0  0  0
    9.1937   -4.4889    0.0000 O   0  0  0  0  0  0  0  0  0  0  0  0
   -2.2378   -2.8389    0.0000 C   0  0  0  0  0  0  0  0  0  0  0  0
   -1.5234   -4.0764    0.0000 C   0  0  0  0  0  0  0  0  0  0  0  0
   -0.0944   -0.7764    0.0000 C   0  0  0  0  0  0  0  0  0  0  0  0
   -0.0082    1.3623    0.0000 C   0  0  0  0  0  0  0  0  0  0  0  0
    8.4792   -4.0764    0.0000 C   0  0  0  0  0  0  0  0  0  0  0  0
    7.7648   -4.4889    0.0000 C   0  0  0  0  0  0  0  0  0  0  0  0
    9.9082   -4.0764    0.0000 C   0  0  0  0  0  0  0  0  0  0  0  0
    4.9069   -0.3639    0.0000 C   0  0  0  0  0  0  0  0  0  0  0  0
    4.1924   -2.4264    0.0000 H   0  0  0  0  0  0  0  0  0  0  0  0
    3.4779   -3.6639    0.0000 H   0  0  0  0  0  0  0  0  0  0  0  0
    1.3571   -0.8132    0.0000 H   0  0  0  0  0  0  0  0  0  0  0  0
  2 13  1  1
  3  6  1  0
  4  1  1  0
  5 12  1  0
  6  5  1  0
  7  2  1  0
  8 16  1  0
  9  1  1  0
 10  8  1  0
 11  9  1  0
 12 23  1  0
  8 13  1  6
 14 20  1  0
 15  7  1  0
 16 29  1  0
 17 27  1  0
 18 25  1  0
  1 19  1  0
 20 18  1  0
 21  2  1  0
 22 18  1  0
 23  4  1  0
 24 26  1  0
  3 25  1  1
 26 22  1  0
 27 19  1  0
 28 11  1  0
 29 28  1  0
 30 33  1  0
 15 31  1  1
 32  5  2  0
 33 21  1  0
  4 34  1  1
  7 35  1  6
 16 36  1  0
 14 37  1  1
 24 38  1  1
  4 39  1  0
  6 40  1  1
  9 41  1  6
 10 42  1  1
 14 43  1  0
 16 44  1  6
 27 45  1  6
 23 46  1  1
 26 47  1  6
 28 48  1  6
 49 45  1  0
 50 55  1  0
 51 31  1  0
 52 31  1  0
 33 53  1  1
 54 37  1  0
 55 56  1  0
 56 49  1  0
 57 50  1  0
 58 46  1  0
 11 17  1  0
  3 10  1  0
 15 30  1  0
 24 14  1  0
  1 59  1  1
 11 60  1  6
 18 61  1  6
M  END


> <chembl_id>
CHEMBL1237072

> <chembl_pref_name>
DIRITHROMYCIN

$$$$

     RDKit          2D

 28 30  0  0  0  0  0  0  0  0999 V2000
   13.1443   -9.6460    0.0000 N   0  0  0  0  0  0  0  0  0  0  0  0
   13.9315   -9.8927    0.0000 C   0  0  0  0  0  0  0  0  0  0  0  0
   14.4110   -9.2213    0.0000 C   0  0  0  0  0  0  0  0  0  0  0  0
   13.9179   -8.5567    0.0000 S   0  0  0  0  0  0  0  0  0  0  0  0
   13.1378   -8.8222    0.0000 C   0  0  0  0  0  0  0  0  0  0  0  0
   12.3167   -9.6417    0.0000 C   0  0  0  0  0  0  0  0  0  0  0  0
   12.3125   -8.8167    0.0000 C   0  0  0  0  0  0  0  0  0  0  0  0
   14.9917   -8.6333    0.0000 C   0  0  0  0  0  0  0  0  0  0  0  0
   14.9917   -9.8042    0.0000 C   0  0  0  0  0  0  0  0  0  0  0  0
   14.1937  -10.6750    0.0000 C   0  0  0  0  0  0  0  0  0  0  0  0
   15.0167  -10.6708    0.0000 O   0  0  0  0  0  0  0  0  0  0  0  0
   13.7136  -11.3458    0.0000 O   0  0  0  0  0  0  0  0  0  0  0  0
   13.1333   -7.9958    0.0000 H   0  0  0  0  0  0  0  0  0  0  0  0
   11.7305   -8.2326    0.0000 N   0  0  0  0  0  0  0  0  0  0  0  0
   12.3083   -7.9917    0.0000 O   0  0  0  0  0  0  0  0  0  0  0  0
   13.0207   -7.5756    0.0000 C   0  0  0  0  0  0  0  0  0  0  0  0
   11.0104   -8.6351    0.0000 C   0  0  0  0  0  0  0  0  0  0  0  0
   10.3017   -8.2126    0.0000 C   0  0  0  0  0  0  0  0  0  0  0  0
   10.9989   -9.4600    0.0000 O   0  0  0  0  0  0  0  0  0  0  0  0
   10.3132   -7.3877    0.0000 C   0  0  0  0  0  0  0  0  0  0  0  0
   11.0334   -6.9852    0.0000 O   0  0  0  0  0  0  0  0  0  0  0  0
    9.6046   -6.9653    0.0000 O   0  0  0  0  0  0  0  0  0  0  0  0
    9.5816   -8.6151    0.0000 C   0  0  0  0  0  0  0  0  0  0  0  0
    8.8335   -8.2741    0.0000 C   0  0  0  0  0  0  0  0  0  0  0  0
    8.2730   -8.8795    0.0000 S   0  0  0  0  0  0  0  0  0  0  0  0
    8.6755   -9.5997    0.0000 C   0  0  0  0  0  0  0  0  0  0  0  0
    9.4848   -9.4393    0.0000 C   0  0  0  0  0  0  0  0  0  0  0  0
   11.7332  -10.2250    0.0000 O   0  0  0  0  0  0  0  0  0  0  0  0
  1  6  1  0
  7 14  1  0
  7 15  1  6
  6  7  1  0
 15 16  1  0
  2  3  1  0
 14 17  1  0
  3  8  1  0
 17 18  1  0
  3  4  1  0
 17 19  2  0
  3  9  1  0
 18 20  1  0
  4  5  1  0
 20 21  1  0
  2 10  1  6
 20 22  2  0
  5  1  1  0
 18 23  1  0
 23 24  2  0
 10 11  1  0
  5  7  1  0
 10 12  2  0
  1  2  1  0
 24 25  1  0
 25 26  1  0
 26 27  2  0
 27 23  1  0
  5 13  1  6
  6 28  2  0
M  END

> <chembl_id>
CHEMBL1276310

> <chembl_pref_name>
TEMOCILLIN

$$$$

     RDKit          2D

 22 24  0  0  0  0  0  0  0  0999 V2000
    1.5042   -1.7042    0.0000 C   0  0  0  0  0  0  0  0  0  0  0  0
    0.9875   -1.4125    0.0000 C   0  0  0  0  0  0  0  0  0  0  0  0
    1.5125   -2.3125    0.0000 C   0  0  0  0  0  0  0  0  0  0  0  0
    0.4667   -1.7167    0.0000 C   0  0  0  0  0  0  0  0  0  0  0  0
    0.9917   -2.6167    0.0000 N   0  0  0  0  0  0  0  0  0  0  0  0
    0.4667   -2.3167    0.0000 C   0  0  0  0  0  0  0  0  0  0  0  0
    2.0250   -1.4042    0.0000 C   0  0  0  0  0  0  0  0  0  0  0  0
   -0.0500   -2.6167    0.0000 C   0  0  0  0  0  0  0  0  0  0  0  0
   -0.0500   -1.4167    0.0000 C   0  0  0  0  0  0  0  0  0  0  0  0
   -0.5708   -2.3167    0.0000 C   0  0  0  0  0  0  0  0  0  0  0  0
    0.9792   -0.8125    0.0000 O   0  0  0  0  0  0  0  0  0  0  0  0
   -0.5708   -1.7167    0.0000 C   0  0  0  0  0  0  0  0  0  0  0  0
    2.0167   -0.8042    0.0000 O   0  0  0  0  0  0  0  0  0  0  0  0
   -2.1250   -3.2167    0.0000 N   0  0  0  0  0  0  0  0  0  0  0  0
   -1.0875   -2.6167    0.0000 C   0  0  0  0  0  0  0  0  0  0  0  0
    2.5500   -1.7000    0.0000 O   0  0  0  0  0  0  0  0  0  0  0  0
    0.9917   -3.2167    0.0000 C   0  0  0  0  0  0  0  0  0  0  0  0
   -2.1250   -2.6167    0.0000 C   0  0  0  0  0  0  0  0  0  0  0  0
   -1.6083   -3.5167    0.0000 C   0  0  0  0  0  0  0  0  0  0  0  0
   -1.6083   -2.3167    0.0000 C   0  0  0  0  0  0  0  0  0  0  0  0
   -1.0833   -3.2167    0.0000 C   0  0  0  0  0  0  0  0  0  0  0  0
    0.4750   -3.5167    0.0000 C   0  0  0  0  0  0  0  0  0  0  0  0
  2  1  1  0
  3  1  2  0
  4  2  1  0
  5  3  1  0
  6  5  1  0
  7  1  1  0
  8  6  2  0
  9  4  2  0
 10  8  1  0
 11  2  2  0
 12  9  1  0
 13  7  2  0
 14 19  1  0
 15 10  1  0
 16  7  1  0
 17  5  1  0
 18 20  1  0
 19 21  2  0
 20 15  2  0
 21 15  1  0
 22 17  1  0
  6  4  1  0
 10 12  2  0
 14 18  2  0
M  END

> <chembl_id>
CHEMBL291157

> <chembl_pref_name>
ROSOXACIN

$$$$

     RDKit          2D

 19 20  0  0  0  0  0  0  0  0999 V2000
    7.9365   -2.1312    0.0000 C   0  0  0  0  0  0  0  0  0  0  0  0
    7.9353   -2.9587    0.0000 C   0  0  0  0  0  0  0  0  0  0  0  0
    8.6482   -3.3716    0.0000 C   0  0  0  0  0  0  0  0  0  0  0  0
    9.3676   -2.9583    0.0000 C   0  0  0  0  0  0  0  0  0  0  0  0
    9.3644   -2.1271    0.0000 C   0  0  0  0  0  0  0  0  0  0  0  0
    8.6462   -1.7184    0.0000 C   0  0  0  0  0  0  0  0  0  0  0  0
    8.6424   -0.8934    0.0000 S   0  0  0  0  0  0  0  0  0  0  0  0
    8.6348   -0.0641    0.0000 N   0  0  0  0  0  0  0  0  0  0  0  0
    9.4673   -0.8877    0.0000 O   0  0  0  0  0  0  0  0  0  0  0  0
    7.8175   -0.9034    0.0000 O   0  0  0  0  0  0  0  0  0  0  0  0
    8.6469   -4.1966    0.0000 N   0  0  0  0  0  0  0  0  0  0  0  0
    9.3455    0.3549    0.0000 C   0  0  0  0  0  0  0  0  0  0  0  0
   10.0610   -0.0530    0.0000 N   0  0  0  0  0  0  0  0  0  0  0  0
   10.7711    0.3653    0.0000 C   0  0  0  0  0  0  0  0  0  0  0  0
   10.7640    1.1912    0.0000 N   0  0  0  0  0  0  0  0  0  0  0  0
   10.0407    1.5968    0.0000 C   0  0  0  0  0  0  0  0  0  0  0  0
    9.3336    1.1762    0.0000 C   0  0  0  0  0  0  0  0  0  0  0  0
   11.4892   -0.0409    0.0000 C   0  0  0  0  0  0  0  0  0  0  0  0
   10.0303    2.4218    0.0000 C   0  0  0  0  0  0  0  0  0  0  0  0
  4  5  1  0
  7 10  2  0
  2  3  1  0
  3 11  1  0
  5  6  2  0
  8 12  1  0
  6  1  1  0
 12 13  2  0
  1  2  2  0
 13 14  1  0
  6  7  1  0
 14 15  2  0
  3  4  2  0
 15 16  1  0
  7  8  1  0
 16 17  2  0
 17 12  1  0
 14 18  1  0
  7  9  2  0
 16 19  1  0
M  END

> <chembl_id>
CHEMBL485696

> <chembl_pref_name>
SULFISOMIDINE

$$$$

     RDKit          2D

 24 26  0  0  0  0  0  0  0  0999 V2000
    2.2250    1.0125    0.0000 C   0  0  0  0  0  0  0  0  0  0  0  0
    0.7042    1.0125    0.0000 C   0  0  0  0  0  0  0  0  0  0  0  0
    1.4625    1.4375    0.0000 C   0  0  0  0  0  0  0  0  0  0  0  0
    0.7042    0.1208    0.0000 C   0  0  0  0  0  0  0  0  0  0  0  0
    2.2250    0.1208    0.0000 C   0  0  0  0  0  0  0  0  0  0  0  0
    1.4625   -0.3292    0.0000 N   0  0  0  0  0  0  0  0  0  0  0  0
   -0.0500   -0.3292    0.0000 C   0  0  0  0  0  0  0  0  0  0  0  0
   -0.8208    0.1208    0.0000 C   0  0  0  0  0  0  0  0  0  0  0  0
   -0.0500    1.4375    0.0000 C   0  0  0  0  0  0  0  0  0  0  0  0
   -1.5833   -0.3292    0.0000 N   0  0  0  0  0  0  0  0  0  0  0  0
    2.9917    1.4583    0.0000 C   0  0  0  0  0  0  0  0  0  0  0  0
   -0.8208    1.0125    0.0000 C   0  0  0  0  0  0  0  0  0  0  0  0
   -3.1208   -1.2167    0.0000 N   0  0  0  0  0  0  0  0  0  0  0  0
    1.4625    2.3333    0.0000 O   0  0  0  0  0  0  0  0  0  0  0  0
   -2.3583    0.1208    0.0000 C   0  0  0  0  0  0  0  0  0  0  0  0
   -1.5833   -1.2167    0.0000 C   0  0  0  0  0  0  0  0  0  0  0  0
    2.9917    2.3333    0.0000 O   0  0  0  0  0  0  0  0  0  0  0  0
   -3.1208   -0.3292    0.0000 C   0  0  0  0  0  0  0  0  0  0  0  0
   -2.3583   -1.6375    0.0000 C   0  0  0  0  0  0  0  0  0  0  0  0
   -1.5833    1.4583    0.0000 F   0  0  0  0  0  0  0  0  0  0  0  0
    3.7542    1.0125    0.0000 O   0  0  0  0  0  0  0  0  0  0  0  0
    1.4625   -1.1917    0.0000 C   0  0  0  0  0  0  0  0  0  0  0  0
   -3.8708   -1.6625    0.0000 C   0  0  0  0  0  0  0  0  0  0  0  0
    0.6917   -1.6375    0.0000 C   0  0  0  0  0  0  0  0  0  0  0  0
  2  3  1  0
  3  1  1  0
  4  2  2  0
  5  1  2  0
  6  5  1  0
  7  4  1  0
  8  7  2  0
  9  2  1  0
 10  8  1  0
 11  1  1  0
 12  9  2  0
 13 18  1  0
 14  3  2  0
 15 10  1  0
 16 10  1  0
 17 11  2  0
 18 15  1  0
 19 16  1  0
 20 12  1  0
 21 11  1  0
 22  6  1  0
 23 13  1  0
 24 22  1  0
  6  4  1  0
  8 12  1  0
 19 13  1  0
M  END

> <chembl_id>
CHEMBL267648

> <chembl_pref_name>
PEFLOXACIN

$$$$

     RDKit          2D

 44 47  0  0  1  0  0  0  0  0999 V2000
   10.8715   -1.1295    0.0000 O   0  0  0  0  0  0  0  0  0  0  0  0
   10.1570   -0.7170    0.0000 O   0  0  0  0  0  0  0  0  0  0  0  0
   11.5860   -0.7170    0.0000 O   0  0  0  0  0  0  0  0  0  0  0  0
    8.7281   -0.7170    0.0000 O   0  0  0  0  0  0  0  0  0  0  0  0
   13.0149   -3.1920    0.0000 O   0  0  0  0  0  0  0  0  0  0  0  0
    7.2991   -0.7170    0.0000 O   0  0  0  0  0  0  0  0  0  0  0  0
   13.7294   -1.9545    0.0000 O   0  0  0  0  0  0  0  0  0  0  0  0
    6.5847   -0.3045    0.0000 O   0  0  0  0  0  0  0  0  0  0  0  0
   11.5860   -4.0170    0.0000 N   0  0  0  0  0  0  0  0  0  0  0  0
    7.2991   -4.0170    0.0000 N   0  0  0  0  0  0  0  0  0  0  0  0
    5.8702   -1.5420    0.0000 N   0  0  0  0  0  0  0  0  0  0  0  0
   13.0149   -0.7170    0.0000 N   0  0  0  0  0  0  0  0  0  0  0  0
    5.1557    0.5205    0.0000 N   0  0  0  0  0  0  0  0  0  0  0  0
   10.8715   -1.9545    0.0000 C   0  0  0  0  0  0  0  0  0  0  0  0
   10.8715   -2.7795    0.0000 C   0  0  0  0  0  0  0  0  0  0  0  0
   10.1570   -1.5420    0.0000 C   0  0  0  0  0  0  0  0  0  0  0  0
    9.4425   -1.9545    0.0000 C   0  0  0  0  0  0  0  0  0  0  0  0
   11.5860   -1.5420    0.0000 C   0  0  0  0  0  0  0  0  0  0  0  0
    9.4425   -2.7795    0.0000 C   0  0  0  0  0  0  0  0  0  0  0  0
   11.5860   -3.1920    0.0000 C   0  0  0  0  0  0  0  0  0  0  0  0
   12.3004   -1.9545    0.0000 C   0  0  0  0  0  0  0  0  0  0  0  0
    8.7281   -1.5420    0.0000 C   0  0  0  0  0  0  0  0  0  0  0  0
   10.1570   -3.1920    0.0000 C   0  0  0  0  0  0  0  0  0  0  0  0
    8.0136   -1.9545    0.0000 C   0  0  0  0  0  0  0  0  0  0  0  0
   12.3004   -2.7795    0.0000 C   0  0  0  0  0  0  0  0  0  0  0  0
    8.0136   -2.7795    0.0000 C   0  0  0  0  0  0  0  0  0  0  0  0
    8.7281   -3.1920    0.0000 C   0  0  0  0  0  0  0  0  0  0  0  0
    7.2991   -1.5420    0.0000 C   0  0  0  0  0  0  0  0  0  0  0  0
    7.2991   -3.1920    0.0000 C   0  0  0  0  0  0  0  0  0  0  0  0
   13.0149   -1.5420    0.0000 C   0  0  0  0  0  0  0  0  0  0  0  0
    6.5847   -1.9545    0.0000 C   0  0  0  0  0  0  0  0  0  0  0  0
    6.5847   -2.7795    0.0000 C   0  0  0  0  0  0  0  0  0  0  0  0
   12.3004   -4.4295    0.0000 C   0  0  0  0  0  0  0  0  0  0  0  0
   10.8715   -4.4295    0.0000 C   0  0  0  0  0  0  0  0  0  0  0  0
    5.8702   -0.7170    0.0000 C   0  0  0  0  0  0  0  0  0  0  0  0
    6.5847   -4.4295    0.0000 C   0  0  0  0  0  0  0  0  0  0  0  0
    8.0136   -4.4295    0.0000 C   0  0  0  0  0  0  0  0  0  0  0  0
    5.1557   -0.3045    0.0000 C   0  0  0  0  0  0  0  0  0  0  0  0
    4.4412    0.9330    0.0000 C   0  0  0  0  0  0  0  0  0  0  0  0
    3.7268    1.3455    0.0000 C   0  0  0  0  0  0  0  0  0  0  0  0
    4.8537    1.6475    0.0000 C   0  0  0  0  0  0  0  0  0  0  0  0
    4.0287    0.2185    0.0000 C   0  0  0  0  0  0  0  0  0  0  0  0
    9.4425   -3.6045    0.0000 H   0  0  0  0  0  0  0  0  0  0  0  0
   10.8715   -3.6045    0.0000 H   0  0  0  0  0  0  0  0  0  0  0  0
 14  1  1  1
  2 16  1  0
  3 18  2  0
  4 22  2  0
  5 25  1  0
  6 28  1  0
  7 30  2  0
  8 35  2  0
 20  9  1  1
  9 33  1  0
  9 34  1  0
 10 29  1  0
 10 36  1  0
 10 37  1  0
 11 31  1  0
 11 35  1  0
 12 30  1  0
 13 38  1  0
 13 39  1  0
 14 15  1  0
 14 16  1  0
 14 18  1  0
 15 20  1  0
 15 23  1  0
 16 17  2  0
 17 19  1  0
 17 22  1  0
 18 21  1  0
 19 23  1  0
 19 27  1  0
 20 25  1  0
 21 25  2  0
 21 30  1  0
 22 24  1  0
 24 26  2  0
 24 28  1  0
 26 27  1  0
 26 29  1  0
 28 31  2  0
 29 32  2  0
 31 32  1  0
 35 38  1  0
 39 40  1  0
 39 41  1  0
 39 42  1  0
 19 43  1  1
 15 44  1  1
M  END

> <chembl_id>
CHEMBL376140

> <chembl_pref_name>
TIGECYCLINE

$$$$

     RDKit          2D

 26 28  0  0  0  0  0  0  0  0999 V2000
    0.5625  -23.8250    0.0000 S   0  0  0  0  0  0  0  0  0  0  0  0
    1.3875  -23.8250    0.0000 C   0  0  0  0  0  0  0  0  0  0  0  0
    1.6443  -23.0409    0.0000 C   0  0  0  0  0  0  0  0  0  0  0  0
    0.9750  -22.5542    0.0000 C   0  0  0  0  0  0  0  0  0  0  0  0
    0.3099  -23.0409    0.0000 C   0  0  0  0  0  0  0  0  0  0  0  0
    2.4292  -22.7871    0.0000 C   0  0  0  0  0  0  0  0  0  0  0  0
    3.0416  -23.3399    0.0000 C   0  0  0  0  0  0  0  0  0  0  0  0
    2.6019  -21.9803    0.0000 C   0  0  0  0  0  0  0  0  0  0  0  0
    3.3869  -21.7253    0.0000 O   0  0  0  0  0  0  0  0  0  0  0  0
    1.9896  -21.4263    0.0000 O   0  0  0  0  0  0  0  0  0  0  0  0
    2.8689  -24.1467    0.0000 O   0  0  0  0  0  0  0  0  0  0  0  0
    3.8265  -23.0861    0.0000 N   0  0  0  0  0  0  0  0  0  0  0  0
    4.4389  -23.6390    0.0000 C   0  0  0  0  0  0  0  0  0  0  0  0
    4.4793  -24.4613    0.0000 C   0  0  0  0  0  0  0  0  0  0  0  0
    3.9258  -25.0731    0.0000 O   0  0  0  0  0  0  0  0  0  0  0  0
    5.2612  -23.5954    0.0000 C   0  0  0  0  0  0  0  0  0  0  0  0
    5.3058  -24.4156    0.0000 N   0  0  0  0  0  0  0  0  0  0  0  0
    6.0997  -24.6266    0.0000 C   0  0  0  0  0  0  0  0  0  0  0  0
    6.5458  -23.9367    0.0000 C   0  0  0  0  0  0  0  0  0  0  0  0
    6.0275  -23.2995    0.0000 S   0  0  0  0  0  0  0  0  0  0  0  0
    6.3971  -25.3965    0.0000 C   0  0  0  0  0  0  0  0  0  0  0  0
    5.8792  -26.0387    0.0000 O   0  0  0  0  0  0  0  0  0  0  0  0
    7.2122  -25.5240    0.0000 O   0  0  0  0  0  0  0  0  0  0  0  0
    6.9500  -23.2167    0.0000 C   0  0  0  0  0  0  0  0  0  0  0  0
    7.2542  -24.3458    0.0000 C   0  0  0  0  0  0  0  0  0  0  0  0
    5.2542  -22.7667    0.0000 H   0  0  0  0  0  0  0  0  0  0  0  0
 13 12  1  1
 13 14  1  0
 14 17  1  0
 16 13  1  0
  6  7  1  0
 14 15  2  0
 16 17  1  0
  2  3  2  0
  6  8  1  1
  3  4  1  0
  4  5  2  0
  8  9  1  0
 17 18  1  0
 18 19  1  0
 19 20  1  0
 20 16  1  0
  8 10  2  0
  5  1  1  0
  7 11  2  0
 21 22  1  0
 21 23  2  0
 18 21  1  6
  1  2  1  0
 19 24  1  0
  7 12  1  0
 19 25  1  0
  3  6  1  0
 16 26  1  6
M  END

> <chembl_id>
CHEMBL1449

> <chembl_pref_name>
TICARCILLIN

$$$$

     RDKit          2D

 36 40  0  0  0  0  0  0  0  0999 V2000
    9.7326   -2.2713    0.0000 N   0  0  0  0  0  0  0  0  0  0  0  0
   10.4471   -2.6843    0.0000 C   0  0  0  0  0  0  0  0  0  0  0  0
   11.1635   -2.2733    0.0000 C   0  0  0  0  0  0  0  0  0  0  0  0
   11.1605   -1.4477    0.0000 C   0  0  0  0  0  0  0  0  0  0  0  0
   10.4494   -1.0347    0.0000 S   0  0  0  0  0  0  0  0  0  0  0  0
    9.7333   -1.4464    0.0000 C   0  0  0  0  0  0  0  0  0  0  0  0
    8.9087   -1.4496    0.0000 C   0  0  0  0  0  0  0  0  0  0  0  0
    8.9074   -2.2745    0.0000 C   0  0  0  0  0  0  0  0  0  0  0  0
   10.4471   -3.5091    0.0000 C   0  0  0  0  0  0  0  0  0  0  0  0
   11.1628   -3.9215    0.0000 O   0  0  0  0  0  0  0  0  0  0  0  0
    9.7314   -3.9215    0.0000 O   0  0  0  0  0  0  0  0  0  0  0  0
    8.3238   -2.8540    0.0000 O   0  0  0  0  0  0  0  0  0  0  0  0
    8.3250   -0.8658    0.0000 N   0  0  0  0  0  0  0  0  0  0  0  0
    7.5304   -1.0758    0.0000 C   0  0  0  0  0  0  0  0  0  0  0  0
    7.3144   -1.8746    0.0000 O   0  0  0  0  0  0  0  0  0  0  0  0
    6.9466   -0.4921    0.0000 C   0  0  0  0  0  0  0  0  0  0  0  0
    6.1478   -0.7073    0.0000 N   0  0  0  0  0  0  0  0  0  0  0  0
    5.9326   -1.5061    0.0000 O   0  0  0  0  0  0  0  0  0  0  0  0
    5.1379   -1.7171    0.0000 C   0  0  0  0  0  0  0  0  0  0  0  0
    7.8850    1.4229    0.0000 S   0  0  0  0  0  0  0  0  0  0  0  0
    7.0905    1.6346    0.0000 C   0  0  0  0  0  0  0  0  0  0  0  0
    6.6378    0.9447    0.0000 N   0  0  0  0  0  0  0  0  0  0  0  0
    7.1576    0.3026    0.0000 C   0  0  0  0  0  0  0  0  0  0  0  0
    7.9288    0.5999    0.0000 N   0  0  0  0  0  0  0  0  0  0  0  0
    6.7926    2.4056    0.0000 N   0  0  0  0  0  0  0  0  0  0  0  0
   11.8750   -2.6856    0.0000 C   0  0  0  0  0  0  0  0  0  0  0  0
   12.5908   -2.2733    0.0000 N   0  0  0  0  0  0  0  0  0  0  0  0
    9.7745   -0.6232    0.0000 H   0  0  0  0  0  0  0  0  0  0  0  0
   13.3466   -2.6061    0.0000 C   0  0  0  0  0  0  0  0  0  0  0  0
   13.8998   -1.9927    0.0000 C   0  0  0  0  0  0  0  0  0  0  0  0
   12.6793   -1.4480    0.0000 C   0  0  0  0  0  0  0  0  0  0  0  0
   13.4877   -1.2788    0.0000 N   0  0  0  0  0  0  0  0  0  0  0  0
   13.7438   -0.4954    0.0000 N   0  0  0  0  0  0  0  0  0  0  0  0
   13.1923    0.1193    0.0000 C   0  0  0  0  0  0  0  0  0  0  0  0
   12.3817   -0.0546    0.0000 C   0  0  0  0  0  0  0  0  0  0  0  0
   12.1294   -0.8376    0.0000 C   0  0  0  0  0  0  0  0  0  0  0  0
  1  8  1  0
  1  6  1  0
  9 10  2  0
  9 11  1  0
  2  9  1  0
  8 12  2  0
 14 15  2  0
 14 16  1  0
 18 19  1  0
 17 18  1  0
 16 17  2  0
 20 21  1  0
 21 22  2  0
 22 23  1  0
 23 24  2  0
 20 24  1  0
 21 25  1  0
 16 23  1  0
 13 14  1  0
  7 13  1  1
 26 27  1  0
  3 26  1  0
  6 28  1  6
 29 30  2  0
  1  2  1  0
 27 29  1  0
 30 32  1  0
 31 27  2  0
  2  3  2  0
  3  4  1  0
 31 32  1  0
  4  5  1  0
 32 33  1  0
  5  6  1  0
 33 34  2  0
  6  7  1  0
 34 35  1  0
  7  8  1  0
 35 36  2  0
 36 31  1  0
M  CHG  2  11  -1  27   1
M  END

> <chembl_id>
CHEMBL1276663

> <chembl_pref_name>
CEFOZOPRAN

$$$$

     RDKit          2D

 33 35  0  0  1  0  0  0  0  0999 V2000
    1.6417   -8.9000    0.0000 C   0  0  0  0  0  0  0  0  0  0  0  0
    2.2542   -7.8375    0.0000 C   0  0  0  0  0  0  0  0  0  0  0  0
    2.2542   -8.5417    0.0000 C   0  0  0  0  0  0  0  0  0  0  0  0
    0.6792  -10.5792    0.0000 C   0  0  0  0  0  0  0  0  0  0  0  0
    1.0333   -9.9667    0.0000 C   0  0  0  0  0  0  0  0  0  0  0  0
   -0.0292  -10.5792    0.0000 C   0  0  0  0  0  0  0  0  0  0  0  0
    1.6417   -9.6042    0.0000 O   0  0  0  0  0  0  0  0  0  0  0  0
    2.8708   -7.4833    0.0000 O   0  0  0  0  0  0  0  0  0  0  0  0
    3.4833   -7.8375    0.0000 C   0  0  0  0  0  0  0  0  0  0  0  0
   -0.3833   -9.9667    0.0000 C   0  0  0  0  0  0  0  0  0  0  0  0
    3.4833   -8.5417    0.0000 O   0  0  0  0  0  0  0  0  0  0  0  0
    1.0292   -8.5417    0.0000 C   0  0  0  0  0  0  0  0  0  0  0  0
    1.6417   -7.4792    0.0000 C   0  0  0  0  0  0  0  0  0  0  0  0
    0.6792   -9.3542    0.0000 O   0  0  0  0  0  0  0  0  0  0  0  0
    1.0292   -7.8375    0.0000 C   0  0  0  0  0  0  0  0  0  0  0  0
    4.0958   -8.9000    0.0000 C   0  0  0  0  0  0  0  0  0  0  0  0
   -0.0292   -9.3542    0.0000 C   0  0  0  0  0  0  0  0  0  0  0  0
    4.7083   -8.5417    0.0000 C   0  0  0  0  0  0  0  0  0  0  0  0
    4.0958   -7.4792    0.0000 C   0  0  0  0  0  0  0  0  0  0  0  0
    4.7083   -7.8375    0.0000 C   0  0  0  0  0  0  0  0  0  0  0  0
   -0.3792  -11.1917    0.0000 N   0  0  0  0  0  0  0  0  0  0  0  0
    1.0333  -11.1917    0.0000 O   0  0  0  0  0  0  0  0  0  0  0  0
    2.8708   -8.8958    0.0000 O   0  0  0  0  0  0  0  0  0  0  0  0
    0.4167   -8.8958    0.0000 N   0  0  0  0  0  0  0  0  0  0  0  0
    1.6417   -6.7750    0.0000 N   0  0  0  0  0  0  0  0  0  0  0  0
   -1.0042  -10.3167    0.0000 O   0  0  0  0  0  0  0  0  0  0  0  0
    4.0958   -6.7750    0.0000 N   0  0  0  0  0  0  0  0  0  0  0  0
    3.4792   -9.9625    0.0000 N   0  0  0  0  0  0  0  0  0  0  0  0
   -1.0042   -9.6125    0.0000 C   0  0  0  0  0  0  0  0  0  0  0  0
    4.0958   -9.6042    0.0000 C   0  0  0  0  0  0  0  0  0  0  0  0
   -0.1958   -8.5417    0.0000 C   0  0  0  0  0  0  0  0  0  0  0  0
   -1.0875  -11.1917    0.0000 C   0  0  0  0  0  0  0  0  0  0  0  0
   -0.8083   -8.8958    0.0000 C   0  0  0  0  0  0  0  0  0  0  0  0
  2  3  1  0
  3  1  1  0
  4  5  1  0
  5  7  1  6
  6  4  1  0
  1  7  1  1
  2  8  1  1
  9  8  1  6
 10 17  1  0
 11  9  1  0
 12  1  1  0
 13  2  1  0
 14  5  1  0
 15 12  1  0
 16 11  1  0
 17 14  1  0
 18 16  2  0
 19  9  1  0
 20 19  1  0
  6 21  1  1
  4 22  1  6
  3 23  1  6
 12 24  1  6
 13 25  1  6
 10 26  1  1
 19 27  1  6
 28 30  1  0
 29 10  1  0
 30 16  1  0
 31 24  1  0
 32 21  1  0
 33 31  1  0
 13 15  1  0
 10  6  1  0
 20 18  1  0
M  END

> <chembl_id>
CHEMBL1572

> <chembl_pref_name>
NETILMICIN

$$$$

     RDKit          2D

 22 24  0  0  0  0  0  0  0  0999 V2000
    3.7167   -4.1125    0.0000 C   0  0  0  0  0  0  0  0  0  0  0  0
    2.1542   -5.0250    0.0000 N   0  0  0  0  0  0  0  0  0  0  0  0
    2.6792   -4.7250    0.0000 C   0  0  0  0  0  0  0  0  0  0  0  0
    2.6792   -4.1250    0.0000 C   0  0  0  0  0  0  0  0  0  0  0  0
    3.1917   -3.8167    0.0000 C   0  0  0  0  0  0  0  0  0  0  0  0
    1.6417   -4.7250    0.0000 C   0  0  0  0  0  0  0  0  0  0  0  0
    3.1917   -5.0250    0.0000 N   0  0  0  0  0  0  0  0  0  0  0  0
    3.7167   -4.7167    0.0000 C   0  0  0  0  0  0  0  0  0  0  0  0
    1.6417   -4.1250    0.0000 N   0  0  0  0  0  0  0  0  0  0  0  0
    4.2292   -3.8125    0.0000 C   0  0  0  0  0  0  0  0  0  0  0  0
    1.1167   -5.0250    0.0000 N   0  0  0  0  0  0  0  0  0  0  0  0
    2.1542   -3.8250    0.0000 C   0  0  0  0  0  0  0  0  0  0  0  0
    3.1917   -3.2167    0.0000 O   0  0  0  0  0  0  0  0  0  0  0  0
    0.0667   -5.6250    0.0000 N   0  0  0  0  0  0  0  0  0  0  0  0
    4.2292   -3.2125    0.0000 O   0  0  0  0  0  0  0  0  0  0  0  0
    4.7542   -4.1042    0.0000 O   0  0  0  0  0  0  0  0  0  0  0  0
    3.2042   -5.6250    0.0000 C   0  0  0  0  0  0  0  0  0  0  0  0
    0.5917   -4.7250    0.0000 C   0  0  0  0  0  0  0  0  0  0  0  0
    1.1167   -5.6250    0.0000 C   0  0  0  0  0  0  0  0  0  0  0  0
    0.5917   -5.9250    0.0000 C   0  0  0  0  0  0  0  0  0  0  0  0
    0.0792   -5.0250    0.0000 C   0  0  0  0  0  0  0  0  0  0  0  0
    2.6792   -5.9250    0.0000 C   0  0  0  0  0  0  0  0  0  0  0  0
  2  3  2  0
  3  7  1  0
  4  5  1  0
  5  1  1  0
  6  2  1  0
  7  8  1  0
  8  1  2  0
  9 12  1  0
 10  1  1  0
 11  6  1  0
 12  4  2  0
 13  5  2  0
 14 20  1  0
 15 10  2  0
 16 10  1  0
 17  7  1  0
 18 11  1  0
 19 11  1  0
 20 19  1  0
 21 18  1  0
 22 17  1  0
  4  3  1  0
  9  6  2  0
 21 14  1  0
M  END

> <chembl_id>
CHEMBL30116

> <chembl_pref_name>
PIPEMIDIC ACID

$$$$

     RDKit          2D

 25 27  0  0  0  0  0  0  0  0999 V2000
    3.9917   -2.4000    0.0000 N   0  0  0  0  0  0  0  0  0  0  0  0
    3.1667   -2.3917    0.0000 C   0  0  0  0  0  0  0  0  0  0  0  0
    3.1583   -3.2167    0.0000 C   0  0  0  0  0  0  0  0  0  0  0  0
    3.9833   -3.2250    0.0000 C   0  0  0  0  0  0  0  0  0  0  0  0
    4.7042   -1.9958    0.0000 C   0  0  0  0  0  0  0  0  0  0  0  0
    2.4458   -3.6333    0.0000 N   0  0  0  0  0  0  0  0  0  0  0  0
    4.6917   -3.6417    0.0000 S   0  0  0  0  0  0  0  0  0  0  0  0
    1.7292   -3.2250    0.0000 C   0  0  0  0  0  0  0  0  0  0  0  0
    5.4167   -2.4125    0.0000 C   0  0  0  0  0  0  0  0  0  0  0  0
    4.7125   -1.1708    0.0000 C   0  0  0  0  0  0  0  0  0  0  0  0
    1.0167   -3.6375    0.0000 C   0  0  0  0  0  0  0  0  0  0  0  0
    1.0208   -4.4667    0.0000 C   0  0  0  0  0  0  0  0  0  0  0  0
    5.4125   -3.2375    0.0000 C   0  0  0  0  0  0  0  0  0  0  0  0
    2.5875   -1.8042    0.0000 O   0  0  0  0  0  0  0  0  0  0  0  0
    1.7250   -2.4000    0.0000 O   0  0  0  0  0  0  0  0  0  0  0  0
    5.4292   -0.7625    0.0000 O   0  0  0  0  0  0  0  0  0  0  0  0
    1.7375   -4.8750    0.0000 C   0  0  0  0  0  0  0  0  0  0  0  0
    0.3125   -5.7042    0.0000 C   0  0  0  0  0  0  0  0  0  0  0  0
    1.0250   -6.1125    0.0000 C   0  0  0  0  0  0  0  0  0  0  0  0
    0.3000   -3.2292    0.0000 N   0  0  0  0  0  0  0  0  0  0  0  0
    4.0042   -0.7500    0.0000 O   0  0  0  0  0  0  0  0  0  0  0  0
    0.3083   -4.8833    0.0000 C   0  0  0  0  0  0  0  0  0  0  0  0
    6.1417   -2.0042    0.0000 C   0  0  0  0  0  0  0  0  0  0  0  0
    1.7375   -5.6958    0.0000 C   0  0  0  0  0  0  0  0  0  0  0  0
    3.9792   -4.0500    0.0000 H   0  0  0  0  0  0  0  0  0  0  0  0
  2  1  1  0
  3  4  1  0
  4  1  1  0
  5  1  1  0
  3  6  1  6
  7  4  1  0
  8  6  1  0
  9  5  2  0
 10  5  1  0
 11  8  1  0
 12 11  1  0
 13  9  1  0
 14  2  2  0
 15  8  2  0
 16 10  2  0
 17 12  2  0
 18 22  1  0
 19 18  2  0
 11 20  1  1
 21 10  1  0
 22 12  1  0
 23  9  1  0
 24 17  1  0
  4 25  1  1
  3  2  1  0
  7 13  1  0
 24 19  1  0
M  END

> <chembl_id>
CHEMBL1604

> <chembl_pref_name>
CEPHRADINE

$$$$

     RDKit          2D

 52 54  0  0  1  0  0  0  0  0999 V2000
   -1.7333    0.9333    0.0000 C   0  0  0  0  0  0  0  0  0  0  0  0
    0.8792   -1.4500    0.0000 C   0  0  0  0  0  0  0  0  0  0  0  0
    2.5042   -1.4792    0.0000 C   0  0  0  0  0  0  0  0  0  0  0  0
    3.3000    0.7583    0.0000 C   0  0  0  0  0  0  0  0  0  0  0  0
    1.6917   -1.9000    0.0000 C   0  0  0  0  0  0  0  0  0  0  0  0
   -2.3208    0.5625    0.0000 C   0  0  0  0  0  0  0  0  0  0  0  0
    0.1417   -0.1250    0.0000 C   0  0  0  0  0  0  0  0  0  0  0  0
    0.8792   -0.6750    0.0000 C   0  0  0  0  0  0  0  0  0  0  0  0
    1.8000    2.6458    0.0000 C   0  0  0  0  0  0  0  0  0  0  0  0
    2.5292    2.1458    0.0000 C   0  0  0  0  0  0  0  0  0  0  0  0
    0.9417    2.1708    0.0000 C   0  0  0  0  0  0  0  0  0  0  0  0
    2.5042   -0.5917    0.0000 O   0  0  0  0  0  0  0  0  0  0  0  0
    2.5292    1.3708    0.0000 C   0  0  0  0  0  0  0  0  0  0  0  0
    0.1417    0.7875    0.0000 C   0  0  0  0  0  0  0  0  0  0  0  0
   -1.1208    0.1083    0.0000 O   0  0  0  0  0  0  0  0  0  0  0  0
   -1.4208   -2.8667    0.0000 C   0  0  0  0  0  0  0  0  0  0  0  0
   -2.9583    0.9333    0.0000 C   0  0  0  0  0  0  0  0  0  0  0  0
   -0.7833   -1.6792    0.0000 C   0  0  0  0  0  0  0  0  0  0  0  0
   -0.7833   -2.4667    0.0000 C   0  0  0  0  0  0  0  0  0  0  0  0
    0.9417    1.3708    0.0000 C   0  0  0  0  0  0  0  0  0  0  0  0
   -1.7333    1.6333    0.0000 O   0  0  0  0  0  0  0  0  0  0  0  0
   -1.4208   -1.3167    0.0000 O   0  0  0  0  0  0  0  0  0  0  0  0
    3.3000   -0.1667    0.0000 C   0  0  0  0  0  0  0  0  0  0  0  0
   -2.0250   -2.4917    0.0000 C   0  0  0  0  0  0  0  0  0  0  0  0
    0.1000   -1.6250    0.0000 O   0  0  0  0  0  0  0  0  0  0  0  0
   -2.0250   -1.7917    0.0000 C   0  0  0  0  0  0  0  0  0  0  0  0
   -2.9583    1.6333    0.0000 C   0  0  0  0  0  0  0  0  0  0  0  0
   -3.7750    0.7333    0.0000 N   0  0  0  0  0  0  0  0  0  0  0  0
    3.0125   -2.0167    0.0000 O   0  0  0  0  0  0  0  0  0  0  0  0
   -2.3208    1.9708    0.0000 C   0  0  0  0  0  0  0  0  0  0  0  0
    1.8000    3.4250    0.0000 O   0  0  0  0  0  0  0  0  0  0  0  0
    4.2792    0.0708    0.0000 O   0  0  0  0  0  0  0  0  0  0  0  0
    0.9667    3.2458    0.0000 F   0  0  0  0  0  0  0  0  0  0  0  0
   -2.3125   -0.1792    0.0000 O   0  0  0  0  0  0  0  0  0  0  0  0
    0.0917    1.7208    0.0000 O   0  0  0  0  0  0  0  0  0  0  0  0
    3.4042    1.7500    0.0000 O   0  0  0  0  0  0  0  0  0  0  0  0
   -0.7250   -3.3667    0.0000 O   0  0  0  0  0  0  0  0  0  0  0  0
   -2.8000   -3.0417    0.0000 O   0  0  0  0  0  0  0  0  0  0  0  0
    4.3042    1.0333    0.0000 C   0  0  0  0  0  0  0  0  0  0  0  0
    1.6917   -2.7375    0.0000 C   0  0  0  0  0  0  0  0  0  0  0  0
    1.5667   -0.0542    0.0000 C   0  0  0  0  0  0  0  0  0  0  0  0
    3.3167    2.6833    0.0000 C   0  0  0  0  0  0  0  0  0  0  0  0
    0.0375    2.7083    0.0000 C   0  0  0  0  0  0  0  0  0  0  0  0
   -0.9458    1.1208    0.0000 C   0  0  0  0  0  0  0  0  0  0  0  0
   -2.0250   -3.5167    0.0000 C   0  0  0  0  0  0  0  0  0  0  0  0
    3.9667   -0.9167    0.0000 C   0  0  0  0  0  0  0  0  0  0  0  0
   -3.1208   -1.3375    0.0000 C   0  0  0  0  0  0  0  0  0  0  0  0
   -3.6875    0.1958    0.0000 C   0  0  0  0  0  0  0  0  0  0  0  0
   -4.3458    1.0083    0.0000 C   0  0  0  0  0  0  0  0  0  0  0  0
   -2.3125    2.7583    0.0000 C   0  0  0  0  0  0  0  0  0  0  0  0
   -0.0875   -3.0667    0.0000 C   0  0  0  0  0  0  0  0  0  0  0  0
    4.3375   -1.5500    0.0000 C   0  0  0  0  0  0  0  0  0  0  0  0
  2  8  1  0
  3  5  1  0
  4 13  1  0
  5  2  1  0
  6  1  1  0
  7 15  1  1
  8  7  1  0
  9 11  1  0
 10  9  1  0
 11 20  1  0
 12  3  1  0
 13 10  1  0
 14  7  1  0
  1 15  1  1
 16 19  1  0
 17  6  1  0
 18 25  1  1
 19 18  1  0
 20 14  1  0
 21  1  1  0
 22 18  1  0
 23 12  1  0
 24 26  1  0
  2 25  1  1
 26 22  1  0
 27 30  1  0
 17 28  1  1
 29  3  2  0
 30 21  1  0
 31  9  2  0
  4 32  1  6
 11 33  1  6
  6 34  1  6
 14 35  1  6
 13 36  1  6
 16 37  1  1
 24 38  1  1
  4 39  1  1
  5 40  1  6
  8 41  1  1
 10 42  1  6
 11 43  1  1
 14 44  1  1
 16 45  1  6
 23 46  1  1
 26 47  1  6
 48 28  1  0
 49 28  1  0
 30 50  1  1
 51 37  1  0
 52 46  1  0
 17 27  1  0
 23  4  1  0
 16 24  1  0
M  END

> <chembl_id>
CHEMBL2106403

> <chembl_pref_name>
FLURITHROMYCIN

$$$$

     RDKit          2D

 28 30  0  0  0  0  0  0  0  0999 V2000
    6.0630  -13.2413    0.0000 N   0  0  0  0  0  0  0  0  0  0  0  0
    6.8413  -13.4952    0.0000 C   0  0  0  0  0  0  0  0  0  0  0  0
    5.2308  -13.2455    0.0000 C   0  0  0  0  0  0  0  0  0  0  0  0
    7.3281  -12.8211    0.0000 C   0  0  0  0  0  0  0  0  0  0  0  0
    6.0547  -12.4215    0.0000 C   0  0  0  0  0  0  0  0  0  0  0  0
    5.2308  -12.4215    0.0000 C   0  0  0  0  0  0  0  0  0  0  0  0
    6.8330  -12.1594    0.0000 C   0  0  0  0  0  0  0  0  0  0  0  0
    7.1034  -14.2775    0.0000 C   0  0  0  0  0  0  0  0  0  0  0  0
    8.2020   -9.9997    0.0000 C   0  0  0  0  0  0  0  0  0  0  0  0
    8.4891  -10.7736    0.0000 C   0  0  0  0  0  0  0  0  0  0  0  0
    8.1520  -12.8211    0.0000 S   0  0  0  0  0  0  0  0  0  0  0  0
    9.2881  -10.9859    0.0000 N   0  0  0  0  0  0  0  0  0  0  0  0
    8.0396  -11.4603    0.0000 C   0  0  0  0  0  0  0  0  0  0  0  0
    4.6440  -13.8280    0.0000 O   0  0  0  0  0  0  0  0  0  0  0  0
    8.7221   -9.3630    0.0000 N   0  0  0  0  0  0  0  0  0  0  0  0
    8.5598  -12.1052    0.0000 C   0  0  0  0  0  0  0  0  0  0  0  0
    4.4978  -12.0325    0.0000 C   0  0  0  0  0  0  0  0  0  0  0  0
    7.3905   -9.8707    0.0000 O   0  0  0  0  0  0  0  0  0  0  0  0
    6.5540  -14.8892    0.0000 O   0  0  0  0  0  0  0  0  0  0  0  0
    9.3255  -11.8098    0.0000 C   0  0  0  0  0  0  0  0  0  0  0  0
    7.9106  -14.4440    0.0000 O   0  0  0  0  0  0  0  0  0  0  0  0
    7.0909  -11.3729    0.0000 C   0  0  0  0  0  0  0  0  0  0  0  0
    4.4745  -11.2041    0.0000 O   0  0  0  0  0  0  0  0  0  0  0  0
    8.4267   -8.5890    0.0000 C   0  0  0  0  0  0  0  0  0  0  0  0
    9.5377   -9.4961    0.0000 C   0  0  0  0  0  0  0  0  0  0  0  0
    3.8042  -12.4672    0.0000 C   0  0  0  0  0  0  0  0  0  0  0  0
    6.0505  -11.5934    0.0000 H   0  0  0  0  0  0  0  0  0  0  0  0
    5.2266  -11.5976    0.0000 H   0  0  0  0  0  0  0  0  0  0  0  0
  2  1  1  0
  3  1  1  0
  4  2  2  0
  5  1  1  0
  6  5  1  0
  7  5  1  0
  8  2  1  0
 10  9  1  1
 10 13  1  0
 11  4  1  0
 12 20  1  0
 13 16  1  0
 14  3  2  0
 15  9  1  0
 16 11  1  1
 17  6  1  0
 18  9  2  0
 19  8  2  0
 20 16  1  0
 21  8  1  0
  7 22  1  1
 17 23  1  1
 24 15  1  0
 25 15  1  0
 26 17  1  0
  5 27  1  6
  6 28  1  1
  4  7  1  0
  6  3  1  0
 12 10  1  0
M  END

> <chembl_id>
CHEMBL127

> <chembl_pref_name>
MEROPENEM

$$$$

     RDKit          2D

 16 17  0  0  0  0  0  0  0  0999 V2000
    5.1750   -4.1292    0.0000 S   0  0  0  0  0  0  0  0  0  0  0  0
    4.7125   -4.6500    0.0000 N   0  0  0  0  0  0  0  0  0  0  0  0
    4.0167   -4.5042    0.0000 C   0  0  0  0  0  0  0  0  0  0  0  0
    3.4417   -4.9042    0.0000 N   0  0  0  0  0  0  0  0  0  0  0  0
    5.7167   -4.6000    0.0000 C   0  0  0  0  0  0  0  0  0  0  0  0
    3.8042   -3.8250    0.0000 S   0  0  0  0  0  0  0  0  0  0  0  0
    5.6542   -3.5917    0.0000 O   0  0  0  0  0  0  0  0  0  0  0  0
    4.6542   -3.6292    0.0000 O   0  0  0  0  0  0  0  0  0  0  0  0
    2.8542   -4.5000    0.0000 C   0  0  0  0  0  0  0  0  0  0  0  0
    3.0917   -3.8250    0.0000 C   0  0  0  0  0  0  0  0  0  0  0  0
    5.5667   -5.2792    0.0000 C   0  0  0  0  0  0  0  0  0  0  0  0
    6.3917   -4.3917    0.0000 C   0  0  0  0  0  0  0  0  0  0  0  0
    6.7625   -5.5542    0.0000 C   0  0  0  0  0  0  0  0  0  0  0  0
    7.2917   -6.0375    0.0000 N   0  0  0  0  0  0  0  0  0  0  0  0
    6.9125   -4.8417    0.0000 C   0  0  0  0  0  0  0  0  0  0  0  0
    6.0792   -5.7542    0.0000 C   0  0  0  0  0  0  0  0  0  0  0  0
  2  1  1  0
  3  2  1  0
  4  3  2  0
  5  1  1  0
  6  3  1  0
  7  1  2  0
  8  1  2  0
  9  4  1  0
 10  6  1  0
 11  5  2  0
 12  5  1  0
 13 15  1  0
 14 13  1  0
 15 12  2  0
 16 11  1  0
 16 13  2  0
  9 10  2  0
M  END

> <chembl_id>
CHEMBL437

> <chembl_pref_name>
SULFATHIAZOLE

$$$$

     RDKit          2D

 18 19  0  0  0  0  0  0  0  0999 V2000
    0.2667   -1.1542    0.0000 S   0  0  0  0  0  0  0  0  0  0  0  0
    1.9375   -0.2167    0.0000 C   0  0  0  0  0  0  0  0  0  0  0  0
    1.3917   -1.1542    0.0000 N   0  0  0  0  0  0  0  0  0  0  0  0
    2.9917   -0.2167    0.0000 N   0  0  0  0  0  0  0  0  0  0  0  0
    1.5542    0.7833    0.0000 O   0  0  0  0  0  0  0  0  0  0  0  0
    3.3292    0.8208    0.0000 C   0  0  0  0  0  0  0  0  0  0  0  0
    2.4292    1.4458    0.0000 C   0  0  0  0  0  0  0  0  0  0  0  0
   -0.8500   -1.1542    0.0000 C   0  0  0  0  0  0  0  0  0  0  0  0
    0.2667   -0.0625    0.0000 O   0  0  0  0  0  0  0  0  0  0  0  0
    0.2667   -2.2417    0.0000 O   0  0  0  0  0  0  0  0  0  0  0  0
   -1.4125   -0.2042    0.0000 C   0  0  0  0  0  0  0  0  0  0  0  0
   -1.4125   -2.0792    0.0000 C   0  0  0  0  0  0  0  0  0  0  0  0
   -3.0333   -1.1542    0.0000 C   0  0  0  0  0  0  0  0  0  0  0  0
   -4.1458   -1.1542    0.0000 N   0  0  0  0  0  0  0  0  0  0  0  0
   -2.4833   -0.2042    0.0000 C   0  0  0  0  0  0  0  0  0  0  0  0
   -2.4833   -2.0792    0.0000 C   0  0  0  0  0  0  0  0  0  0  0  0
    4.3417    1.1500    0.0000 C   0  0  0  0  0  0  0  0  0  0  0  0
    2.4292    2.5208    0.0000 C   0  0  0  0  0  0  0  0  0  0  0  0
  2  3  1  0
  3  1  1  0
  4  2  2  0
  5  2  1  0
  6  4  1  0
  7  5  1  0
  8  1  1  0
  9  1  2  0
 10  1  2  0
 11  8  1  0
 12  8  2  0
 13 16  2  0
 14 13  1  0
 15 11  2  0
 16 12  1  0
 17  6  1  0
 18  7  1  0
 15 13  1  0
  6  7  2  0
M  END

> <chembl_id>
CHEMBL2105399

> <chembl_pref_name>
SULFAMOXOLE

$$$$

     RDKit          2D

 29 31  0  0  1  0  0  0  0  0999 V2000
    0.1167    0.2625    0.0000 N   0  0  0  0  0  0  0  0  0  0  0  0
    0.1167   -0.6375    0.0000 C   0  0  0  0  0  0  0  0  0  0  0  0
   -0.7583    0.2625    0.0000 C   0  0  0  0  0  0  0  0  0  0  0  0
   -0.7583   -0.6375    0.0000 C   0  0  0  0  0  0  0  0  0  0  0  0
    0.9792    0.5458    0.0000 C   0  0  0  0  0  0  0  0  0  0  0  0
    0.9792   -0.9042    0.0000 S   0  0  0  0  0  0  0  0  0  0  0  0
    1.4917   -0.1792    0.0000 C   0  0  0  0  0  0  0  0  0  0  0  0
   -1.6208   -0.4000    0.0000 N   0  0  0  0  0  0  0  0  0  0  0  0
    1.7125    1.0708    0.0000 C   0  0  0  0  0  0  0  0  0  0  0  0
   -2.2458   -1.0250    0.0000 C   0  0  0  0  0  0  0  0  0  0  0  0
   -1.0708    0.9875    0.0000 O   0  0  0  0  0  0  0  0  0  0  0  0
    3.4792   -1.4792    0.0000 C   0  0  0  0  0  0  0  0  0  0  0  0
    2.5167    0.6833    0.0000 O   0  0  0  0  0  0  0  0  0  0  0  0
    2.5917   -0.2000    0.0000 C   0  0  0  0  0  0  0  0  0  0  0  0
    1.6292    1.9583    0.0000 O   0  0  0  0  0  0  0  0  0  0  0  0
    3.4000   -0.5917    0.0000 O   0  0  0  0  0  0  0  0  0  0  0  0
   -2.0500   -1.8875    0.0000 O   0  0  0  0  0  0  0  0  0  0  0  0
    4.2792   -1.8500    0.0000 O   0  0  0  0  0  0  0  0  0  0  0  0
   -3.1125   -0.7667    0.0000 C   0  0  0  0  0  0  0  0  0  0  0  0
    2.2542    0.2833    0.0000 C   0  0  0  0  0  0  0  0  0  0  0  0
    2.2167   -0.7125    0.0000 C   0  0  0  0  0  0  0  0  0  0  0  0
   -3.3083    0.0708    0.0000 C   0  0  0  0  0  0  0  0  0  0  0  0
    2.7500   -1.9875    0.0000 C   0  0  0  0  0  0  0  0  0  0  0  0
   -2.6833    0.7208    0.0000 C   0  0  0  0  0  0  0  0  0  0  0  0
   -4.1333    0.3208    0.0000 C   0  0  0  0  0  0  0  0  0  0  0  0
   -2.8583    1.5625    0.0000 C   0  0  0  0  0  0  0  0  0  0  0  0
   -4.3458    1.1833    0.0000 C   0  0  0  0  0  0  0  0  0  0  0  0
   -3.7208    1.8125    0.0000 C   0  0  0  0  0  0  0  0  0  0  0  0
   -0.0327   -1.6263    0.0000 H   0  0  0  0  0  0  0  0  0  0  0  0
  2  1  1  0
  3  1  1  0
  4  3  1  0
  5  1  1  0
  6  2  1  0
  7  5  1  0
  4  8  1  6
  5  9  1  1
 10  8  1  0
 11  3  2  0
 12 16  1  0
 13  9  1  0
 14 13  1  0
 15  9  2  0
 16 14  1  0
 17 10  2  0
 18 12  2  0
 19 10  1  0
 20  7  1  0
 21  7  1  0
 22 19  1  0
 23 12  1  0
 24 22  2  0
 25 22  1  0
 26 24  1  0
 27 25  2  0
 28 27  1  0
  6  7  1  0
  2  4  1  0
 26 28  2  0
  2 29  1  1
M  END

> <chembl_id>
CHEMBL2106988

> <chembl_pref_name>
PENAMECILLIN

$$$$

     RDKit          2D

 34 37  0  0  0  0  0  0  0  0999 V2000
   10.4314   -8.4223    0.0000 N   0  0  0  0  0  0  0  0  0  0  0  0
    9.5983   -8.4420    0.0000 C   0  0  0  0  0  0  0  0  0  0  0  0
    9.5827   -7.6047    0.0000 C   0  0  0  0  0  0  0  0  0  0  0  0
   10.4200   -7.5890    0.0000 C   0  0  0  0  0  0  0  0  0  0  0  0
   11.1620   -8.8260    0.0000 C   0  0  0  0  0  0  0  0  0  0  0  0
    6.7286   -7.6509    0.0000 C   0  0  0  0  0  0  0  0  0  0  0  0
    7.4349   -7.2291    0.0000 C   0  0  0  0  0  0  0  0  0  0  0  0
    6.6582   -8.4697    0.0000 N   0  0  0  0  0  0  0  0  0  0  0  0
    8.8639   -7.2049    0.0000 N   0  0  0  0  0  0  0  0  0  0  0  0
    8.1548   -7.6319    0.0000 C   0  0  0  0  0  0  0  0  0  0  0  0
   11.1227   -7.1640    0.0000 S   0  0  0  0  0  0  0  0  0  0  0  0
   11.8685   -8.3884    0.0000 C   0  0  0  0  0  0  0  0  0  0  0  0
    5.8531   -8.6556    0.0000 C   0  0  0  0  0  0  0  0  0  0  0  0
    5.9741   -7.3232    0.0000 C   0  0  0  0  0  0  0  0  0  0  0  0
   13.2736   -7.5299    0.0000 C   0  0  0  0  0  0  0  0  0  0  0  0
   11.1815   -9.6508    0.0000 C   0  0  0  0  0  0  0  0  0  0  0  0
    5.4272   -7.9505    0.0000 S   0  0  0  0  0  0  0  0  0  0  0  0
   13.6516   -6.2415    0.0000 N   0  0  0  0  0  0  0  0  0  0  0  0
   12.5946   -8.7796    0.0000 C   0  0  0  0  0  0  0  0  0  0  0  0
   13.9243   -7.0227    0.0000 C   0  0  0  0  0  0  0  0  0  0  0  0
   13.2973   -8.3546    0.0000 C   0  0  0  0  0  0  0  0  0  0  0  0
   12.8269   -6.2651    0.0000 C   0  0  0  0  0  0  0  0  0  0  0  0
   12.5914   -7.0584    0.0000 S   0  0  0  0  0  0  0  0  0  0  0  0
   11.8489   -7.5594    0.0000 C   0  0  0  0  0  0  0  0  0  0  0  0
    7.4252   -6.4032    0.0000 N   0  0  0  0  0  0  0  0  0  0  0  0
    9.0287   -9.0306    0.0000 O   0  0  0  0  0  0  0  0  0  0  0  0
    8.1713   -8.4515    0.0000 O   0  0  0  0  0  0  0  0  0  0  0  0
   10.4788  -10.0758    0.0000 O   0  0  0  0  0  0  0  0  0  0  0  0
   11.9034  -10.0422    0.0000 O   0  0  0  0  0  0  0  0  0  0  0  0
    5.5305   -9.4130    0.0000 N   0  0  0  0  0  0  0  0  0  0  0  0
    8.1343   -5.9762    0.0000 O   0  0  0  0  0  0  0  0  0  0  0  0
   14.7175   -7.2540    0.0000 C   0  0  0  0  0  0  0  0  0  0  0  0
    8.1032   -4.9554    0.0000 C   0  0  0  0  0  0  0  0  0  0  0  0
   10.4048   -6.7683    0.0000 H   0  0  0  0  0  0  0  0  0  0  0  0
  2  1  1  0
  3  2  1  0
  4  1  1  0
  5  1  1  0
  6  7  1  0
  7 10  1  0
  8  6  1  0
  3  9  1  1
 10  9  1  0
 11  4  1  0
 12  5  2  0
 13  8  2  0
 14  6  2  0
 15 21  1  0
 16  5  1  0
 17 14  1  0
 18 20  1  0
 19 12  1  0
 20 15  2  0
 21 19  2  0
 22 23  1  0
 23 15  1  0
 24 11  1  0
 25  7  2  0
 26  2  2  0
 27 10  2  0
 28 16  1  0
 29 16  2  0
 30 13  1  0
 31 25  1  0
 32 20  1  0
 33 31  1  0
  4 34  1  6
  3  4  1  0
 24 12  1  0
 22 18  2  0
 13 17  1  0
M  END

> <chembl_id>
CHEMBL1743

> <chembl_pref_name>
CEFDITOREN

$$$$

     RDKit          2D

 33 35  0  0  0  0  0  0  0  0999 V2000
  -18.6214    0.3536    0.0000 C   0  0  0  0  0  0  0  0  0  0  0  0
  -19.0339    1.0680    0.0000 O   0  0  0  0  0  0  0  0  0  0  0  0
  -19.8589    1.0680    0.0000 C   0  0  0  0  0  0  0  0  0  0  0  0
  -20.2714    0.3536    0.0000 C   0  0  0  0  0  0  0  0  0  0  0  0
  -19.8589   -0.3609    0.0000 C   0  0  0  0  0  0  0  0  0  0  0  0
  -19.0339   -0.3609    0.0000 C   0  0  0  0  0  0  0  0  0  0  0  0
  -17.7964    0.3536    0.0000 O   0  0  0  0  0  0  0  0  0  0  0  0
  -16.9714    0.3536    0.0000 C   0  0  0  0  0  0  0  0  0  0  0  0
  -16.5589   -0.3609    0.0000 C   0  0  0  0  0  0  0  0  0  0  0  0
  -15.7339   -0.3609    0.0000 C   0  0  0  0  0  0  0  0  0  0  0  0
  -15.3214    0.3536    0.0000 C   0  0  0  0  0  0  0  0  0  0  0  0
  -15.7339    1.0680    0.0000 C   0  0  0  0  0  0  0  0  0  0  0  0
  -16.5589    1.0680    0.0000 C   0  0  0  0  0  0  0  0  0  0  0  0
  -15.3214   -1.0754    0.0000 O   0  0  0  0  0  0  0  0  0  0  0  0
  -14.9089   -1.7898    0.0000 C   0  0  0  0  0  0  0  0  0  0  0  0
  -13.8984   -2.8003    0.0000 C   0  0  0  0  0  0  0  0  0  0  0  0
  -14.1120   -2.0034    0.0000 O   0  0  0  0  0  0  0  0  0  0  0  0
  -15.4923   -2.3732    0.0000 C   0  0  0  0  0  0  0  0  0  0  0  0
  -15.2787   -3.1701    0.0000 C   0  0  0  0  0  0  0  0  0  0  0  0
  -14.4818   -3.3836    0.0000 C   0  0  0  0  0  0  0  0  0  0  0  0
  -16.2891   -2.1597    0.0000 O   0  0  0  0  0  0  0  0  0  0  0  0
  -15.8621   -3.7534    0.0000 N   0  0  0  0  0  0  0  0  0  0  0  0
  -14.2683   -4.1805    0.0000 O   0  0  0  0  0  0  0  0  0  0  0  0
  -13.1016   -3.0138    0.0000 C   0  0  0  0  0  0  0  0  0  0  0  0
  -12.6891   -2.2993    0.0000 O   0  0  0  0  0  0  0  0  0  0  0  0
  -14.4964    0.3536    0.0000 N   0  0  0  0  0  0  0  0  0  0  0  0
  -16.9714    1.7825    0.0000 N   0  0  0  0  0  0  0  0  0  0  0  0
  -16.9714   -1.0754    0.0000 O   0  0  0  0  0  0  0  0  0  0  0  0
  -18.6214   -1.0754    0.0000 N   0  0  0  0  0  0  0  0  0  0  0  0
  -20.2714   -1.0754    0.0000 O   0  0  0  0  0  0  0  0  0  0  0  0
  -21.0964    0.3536    0.0000 O   0  0  0  0  0  0  0  0  0  0  0  0
  -20.2714    1.7825    0.0000 C   0  0  0  0  0  0  0  0  0  0  0  0
  -20.0579    2.5794    0.0000 N   0  0  0  0  0  0  0  0  0  0  0  0
  1  2  1  0
  6  1  1  0
  2  3  1  0
  3  4  1  0
  4  5  1  0
  5  6  1  0
  1  7  1  6
  8  7  1  6
  8  9  1  0
 13  8  1  0
  9 10  1  0
 10 11  1  0
 11 12  1  0
 12 13  1  0
 10 14  1  6
 15 14  1  1
 17 15  1  0
 15 18  1  0
 16 17  1  0
 20 16  1  0
 18 19  1  0
 19 20  1  0
 18 21  1  1
 19 22  1  6
 20 23  1  1
 16 24  1  6
 24 25  1  0
 11 26  1  1
 13 27  1  1
  9 28  1  1
  6 29  1  6
  5 30  1  1
  4 31  1  6
  3 32  1  1
 32 33  1  0
M  END

> <chembl_id>
CHEMBL176

> <chembl_pref_name>
BEKANAMYCIN

$$$$

     RDKit          2D

 31 33  0  0  1  0  0  0  0  0999 V2000
    2.5500   -8.3042    0.0000 N   0  0  0  0  0  0  0  0  0  0  0  0
    1.8375   -8.3042    0.0000 C   0  0  0  0  0  0  0  0  0  0  0  0
    1.8375   -7.5917    0.0000 C   0  0  0  0  0  0  0  0  0  0  0  0
    2.5500   -7.5917    0.0000 C   0  0  0  0  0  0  0  0  0  0  0  0
    3.1583   -8.6542    0.0000 C   0  0  0  0  0  0  0  0  0  0  0  0
   -0.6333   -7.5833    0.0000 C   0  0  0  0  0  0  0  0  0  0  0  0
   -0.0208   -7.2333    0.0000 C   0  0  0  0  0  0  0  0  0  0  0  0
   -1.2083   -7.1625    0.0000 N   0  0  0  0  0  0  0  0  0  0  0  0
    1.2167   -7.2292    0.0000 N   0  0  0  0  0  0  0  0  0  0  0  0
    0.5958   -7.5917    0.0000 C   0  0  0  0  0  0  0  0  0  0  0  0
    3.1667   -7.2375    0.0000 S   0  0  0  0  0  0  0  0  0  0  0  0
    3.7750   -8.3083    0.0000 C   0  0  0  0  0  0  0  0  0  0  0  0
   -1.7833   -7.5833    0.0000 C   0  0  0  0  0  0  0  0  0  0  0  0
    3.1542   -9.3667    0.0000 C   0  0  0  0  0  0  0  0  0  0  0  0
   -0.8542   -8.2542    0.0000 C   0  0  0  0  0  0  0  0  0  0  0  0
   -1.5625   -8.2542    0.0000 S   0  0  0  0  0  0  0  0  0  0  0  0
    3.7792   -7.6000    0.0000 C   0  0  0  0  0  0  0  0  0  0  0  0
   -0.0208   -6.5250    0.0000 N   0  0  0  0  0  0  0  0  0  0  0  0
    1.3375   -8.8083    0.0000 O   0  0  0  0  0  0  0  0  0  0  0  0
    4.3833   -8.6667    0.0000 C   0  0  0  0  0  0  0  0  0  0  0  0
    5.6167   -8.6792    0.0000 C   0  0  0  0  0  0  0  0  0  0  0  0
    0.5958   -8.3042    0.0000 O   0  0  0  0  0  0  0  0  0  0  0  0
    3.7667   -9.7292    0.0000 O   0  0  0  0  0  0  0  0  0  0  0  0
    2.5333   -9.7208    0.0000 O   0  0  0  0  0  0  0  0  0  0  0  0
    5.0042   -8.3167    0.0000 O   0  0  0  0  0  0  0  0  0  0  0  0
    5.6083   -9.3875    0.0000 O   0  0  0  0  0  0  0  0  0  0  0  0
   -2.4000   -7.2292    0.0000 N   0  0  0  0  0  0  0  0  0  0  0  0
    0.5958   -6.1708    0.0000 O   0  0  0  0  0  0  0  0  0  0  0  0
    6.2333   -8.3292    0.0000 C   0  0  0  0  0  0  0  0  0  0  0  0
    1.2083   -6.5250    0.0000 C   0  0  0  0  0  0  0  0  0  0  0  0
    2.5417   -6.8792    0.0000 H   0  0  0  0  0  0  0  0  0  0  0  0
  2  1  1  0
  3  4  1  0
  4  1  1  0
  5  1  1  0
  6  7  1  0
  7 10  1  0
  8  6  1  0
  3  9  1  1
 10  9  1  0
 11  4  1  0
 12  5  2  0
 13  8  2  0
 14  5  1  0
 15  6  2  0
 16 15  1  0
 17 12  1  0
 18  7  2  0
 19  2  2  0
 20 12  1  0
 21 25  1  0
 22 10  2  0
 23 14  1  0
 24 14  2  0
 25 20  1  0
 26 21  2  0
 27 13  1  0
 28 18  1  0
 29 21  1  0
 30 28  1  0
  4 31  1  6
  2  3  1  0
 11 17  1  0
 16 13  1  0
M  END

> <chembl_id>
CHEMBL1730

> <chembl_pref_name>
CEFOTAXIME

$$$$

     RDKit          2D

 26 29  0  0  0  0  0  0  0  0999 V2000
    2.4522    1.9462    0.0000 C   0  0  0  0  0  0  0  0  0  0  0  0
    2.4522    1.1212    0.0000 C   0  0  0  0  0  0  0  0  0  0  0  0
    1.7378    0.7087    0.0000 N   0  0  0  0  0  0  0  0  0  0  0  0
    1.0233    1.1212    0.0000 C   0  0  0  0  0  0  0  0  0  0  0  0
    1.0233    1.9462    0.0000 N   0  0  0  0  0  0  0  0  0  0  0  0
    1.7378    2.3587    0.0000 C   0  0  0  0  0  0  0  0  0  0  0  0
    0.3088    0.7087    0.0000 N   0  0  0  0  0  0  0  0  0  0  0  0
    1.7378    3.1837    0.0000 N   0  0  0  0  0  0  0  0  0  0  0  0
    3.1667    2.3587    0.0000 C   0  0  0  0  0  0  0  0  0  0  0  0
    3.8812    1.9462    0.0000 C   0  0  0  0  0  0  0  0  0  0  0  0
    3.8812    1.1212    0.0000 C   0  0  0  0  0  0  0  0  0  0  0  0
    4.5956    0.7087    0.0000 C   0  0  0  0  0  0  0  0  0  0  0  0
    5.3101    1.1212    0.0000 C   0  0  0  0  0  0  0  0  0  0  0  0
    5.3101    1.9462    0.0000 C   0  0  0  0  0  0  0  0  0  0  0  0
    4.5956    2.3587    0.0000 C   0  0  0  0  0  0  0  0  0  0  0  0
    3.1667    0.7087    0.0000 C   0  0  0  0  0  0  0  0  0  0  0  0
    3.1667   -0.1163    0.0000 C   0  0  0  0  0  0  0  0  0  0  0  0
    3.8812   -0.5288    0.0000 C   0  0  0  0  0  0  0  0  0  0  0  0
    4.5956   -0.1163    0.0000 O   0  0  0  0  0  0  0  0  0  0  0  0
    3.8812   -1.3537    0.0000 C   0  0  0  0  0  0  0  0  0  0  0  0
    3.4687   -2.0682    0.0000 C   0  0  0  0  0  0  0  0  0  0  0  0
    4.2937   -2.0682    0.0000 C   0  0  0  0  0  0  0  0  0  0  0  0
    6.0246    2.3587    0.0000 O   0  0  0  0  0  0  0  0  0  0  0  0
    6.0246    0.7087    0.0000 O   0  0  0  0  0  0  0  0  0  0  0  0
    6.7390    1.9462    0.0000 C   0  0  0  0  0  0  0  0  0  0  0  0
    6.7390    1.1212    0.0000 C   0  0  0  0  0  0  0  0  0  0  0  0
  6  8  1  0
  1  9  1  0
  9 10  1  0
 10 11  1  0
 11 12  2  0
 12 13  1  0
 13 14  2  0
 14 15  1  0
 15 10  2  0
 11 16  1  0
 16 17  2  0
 17 18  1  0
 18 19  1  0
 19 12  1  0
 18 20  1  0
 20 21  1  0
 21 22  1  0
 22 20  1  0
 14 23  1  0
 13 24  1  0
  1  2  2  0
 23 25  1  0
  2  3  1  0
 24 26  1  0
  3  4  2  0
  4  5  1  0
  5  6  2  0
  6  1  1  0
  4  7  1  0
M  END

> <chembl_id>
CHEMBL134561

> <chembl_pref_name>
ICLAPRIM

$$$$

     RDKit          2D

163163  0  0  0  0  0  0  0  0999 V2000
    8.8177  -16.8882    0.0000 N   0  0  0  0  0  0  0  0  0  0  0  0
    7.9888  -16.8882    0.0000 C   0  0  0  0  0  0  0  0  0  0  0  0
   13.3624  -16.2009    0.0000 N   0  0  0  0  0  0  0  0  0  0  0  0
   12.5502  -14.7595    0.0000 N   0  0  0  0  0  0  0  0  0  0  0  0
   12.5293  -17.6172    0.0000 N   0  0  0  0  0  0  0  0  0  0  0  0
    9.2301  -17.5922    0.0000 C   0  0  0  0  0  0  0  0  0  0  0  0
    9.4217  -12.1602    0.0000 N   0  0  0  0  0  0  0  0  0  0  0  0
   10.8797  -17.6047    0.0000 N   0  0  0  0  0  0  0  0  0  0  0  0
   13.7831  -15.4885    0.0000 C   0  0  0  0  0  0  0  0  0  0  0  0
   13.3499  -17.6255    0.0000 C   0  0  0  0  0  0  0  0  0  0  0  0
   12.1418  -14.0472    0.0000 C   0  0  0  0  0  0  0  0  0  0  0  0
   11.2837  -18.3211    0.0000 C   0  0  0  0  0  0  0  0  0  0  0  0
    9.4300  -12.9850    0.0000 C   0  0  0  0  0  0  0  0  0  0  0  0
    7.5764  -16.1676    0.0000 C   0  0  0  0  0  0  0  0  0  0  0  0
   13.7706  -16.9132    0.0000 C   0  0  0  0  0  0  0  0  0  0  0  0
   13.3749  -14.7679    0.0000 C   0  0  0  0  0  0  0  0  0  0  0  0
    3.0067  -13.3933    0.0000 C   0  0  0  0  0  0  0  0  0  0  0  0
    7.2890  -13.3933    0.0000 C   0  0  0  0  0  0  0  0  0  0  0  0
    3.7149  -12.9850    0.0000 N   0  0  0  0  0  0  0  0  0  0  0  0
    8.0013  -12.9850    0.0000 N   0  0  0  0  0  0  0  0  0  0  0  0
   10.0844  -17.8280    0.0000 C   0  0  0  0  0  0  0  0  0  0  0  0
   12.1168  -18.3253    0.0000 C   0  0  0  0  0  0  0  0  0  0  0  0
   11.3170  -14.0431    0.0000 C   0  0  0  0  0  0  0  0  0  0  0  0
    8.7177  -13.3933    0.0000 C   0  0  0  0  0  0  0  0  0  0  0  0
    4.4272  -13.3933    0.0000 C   0  0  0  0  0  0  0  0  0  0  0  0
    1.5737  -13.3933    0.0000 N   0  0  0  0  0  0  0  0  0  0  0  0
    7.9971  -15.4510    0.0000 N   0  0  0  0  0  0  0  0  0  0  0  0
    2.2861  -12.9850    0.0000 C   0  0  0  0  0  0  0  0  0  0  0  0
    0.8614  -12.9850    0.0000 C   0  0  0  0  0  0  0  0  0  0  0  0
    5.8602  -13.3933    0.0000 N   0  0  0  0  0  0  0  0  0  0  0  0
    8.8094  -18.3086    0.0000 O   0  0  0  0  0  0  0  0  0  0  0  0
   14.6080  -15.4927    0.0000 O   0  0  0  0  0  0  0  0  0  0  0  0
   13.7623  -18.3378    0.0000 O   0  0  0  0  0  0  0  0  0  0  0  0
   12.5627  -13.3349    0.0000 O   0  0  0  0  0  0  0  0  0  0  0  0
   10.8672  -19.0376    0.0000 O   0  0  0  0  0  0  0  0  0  0  0  0
   10.1424  -13.3849    0.0000 O   0  0  0  0  0  0  0  0  0  0  0  0
    6.5642  -12.9850    0.0000 C   0  0  0  0  0  0  0  0  0  0  0  0
    5.1436  -12.9850    0.0000 C   0  0  0  0  0  0  0  0  0  0  0  0
    3.0067  -14.2181    0.0000 O   0  0  0  0  0  0  0  0  0  0  0  0
    7.2890  -14.2181    0.0000 O   0  0  0  0  0  0  0  0  0  0  0  0
    6.7517  -16.1676    0.0000 O   0  0  0  0  0  0  0  0  0  0  0  0
   13.7956  -14.0556    0.0000 C   0  0  0  0  0  0  0  0  0  0  0  0
   14.5955  -16.9174    0.0000 C   0  0  0  0  0  0  0  0  0  0  0  0
    7.5764  -17.5922    0.0000 C   0  0  0  0  0  0  0  0  0  0  0  0
    0.8614  -12.1644    0.0000 O   0  0  0  0  0  0  0  0  0  0  0  0
    4.4272  -14.2181    0.0000 C   0  0  0  0  0  0  0  0  0  0  0  0
    8.7177  -14.2181    0.0000 C   0  0  0  0  0  0  0  0  0  0  0  0
    8.0013  -14.6345    0.0000 C   0  0  0  0  0  0  0  0  0  0  0  0
   12.5168  -19.0501    0.0000 C   0  0  0  0  0  0  0  0  0  0  0  0
   11.7379  -13.3308    0.0000 C   0  0  0  0  0  0  0  0  0  0  0  0
    9.9960  -18.6905    0.0000 C   0  0  0  0  0  0  0  0  0  0  0  0
    2.2861  -12.1644    0.0000 C   0  0  0  0  0  0  0  0  0  0  0  0
    6.5642  -12.1644    0.0000 C   0  0  0  0  0  0  0  0  0  0  0  0
    9.3426  -19.7804    0.0000 N   0  0  0  0  0  0  0  0  0  0  0  0
    5.8602  -10.9231    0.0000 N   0  0  0  0  0  0  0  0  0  0  0  0
    1.5737  -10.9231    0.0000 N   0  0  0  0  0  0  0  0  0  0  0  0
   11.7420  -11.8978    0.0000 N   0  0  0  0  0  0  0  0  0  0  0  0
   12.5043  -20.4706    0.0000 N   0  0  0  0  0  0  0  0  0  0  0  0
    7.9888  -18.3003    0.0000 O   0  0  0  0  0  0  0  0  0  0  0  0
    3.7149  -14.6345    0.0000 O   0  0  0  0  0  0  0  0  0  0  0  0
   14.6204  -14.0597    0.0000 C   0  0  0  0  0  0  0  0  0  0  0  0
   14.9995  -17.6380    0.0000 C   0  0  0  0  0  0  0  0  0  0  0  0
    0.1408  -13.3933    0.0000 C   0  0  0  0  0  0  0  0  0  0  0  0
   11.3254  -12.6143    0.0000 C   0  0  0  0  0  0  0  0  0  0  0  0
    9.3343  -18.8378    0.0000 C   0  0  0  0  0  0  0  0  0  0  0  0
   12.1043  -19.7625    0.0000 C   0  0  0  0  0  0  0  0  0  0  0  0
    1.5737  -11.7478    0.0000 C   0  0  0  0  0  0  0  0  0  0  0  0
    5.8602  -11.7478    0.0000 C   0  0  0  0  0  0  0  0  0  0  0  0
    6.7517  -17.5922    0.0000 C   0  0  0  0  0  0  0  0  0  0  0  0
    5.1436  -14.6345    0.0000 C   0  0  0  0  0  0  0  0  0  0  0  0
   -2.7085  -13.3933    0.0000 C   0  0  0  0  0  0  0  0  0  0  0  0
   -0.5632  -12.9850    0.0000 C   0  0  0  0  0  0  0  0  0  0  0  0
   -3.4250  -12.9850    0.0000 C   0  0  0  0  0  0  0  0  0  0  0  0
   -1.9961  -12.9850    0.0000 C   0  0  0  0  0  0  0  0  0  0  0  0
   15.0370  -13.3599    0.0000 C   0  0  0  0  0  0  0  0  0  0  0  0
   15.0245  -14.7845    0.0000 C   0  0  0  0  0  0  0  0  0  0  0  0
   14.5830  -18.3503    0.0000 C   0  0  0  0  0  0  0  0  0  0  0  0
   15.8284  -17.6422    0.0000 C   0  0  0  0  0  0  0  0  0  0  0  0
   -1.2838  -13.3933    0.0000 C   0  0  0  0  0  0  0  0  0  0  0  0
   -2.7085  -14.2347    0.0000 C   0  0  0  0  0  0  0  0  0  0  0  0
    8.4860  -17.7557    0.0000 H   0  0  0  0  0  0  0  0  0  0  0  0
    8.5811   -6.2609    0.0000 N   0  0  0  0  0  0  0  0  0  0  0  0
    7.7522   -6.2609    0.0000 C   0  0  0  0  0  0  0  0  0  0  0  0
   13.1259   -5.5736    0.0000 N   0  0  0  0  0  0  0  0  0  0  0  0
   12.3136   -4.1322    0.0000 N   0  0  0  0  0  0  0  0  0  0  0  0
   12.2927   -6.9899    0.0000 N   0  0  0  0  0  0  0  0  0  0  0  0
    8.9935   -6.9649    0.0000 C   0  0  0  0  0  0  0  0  0  0  0  0
    9.1851   -1.5329    0.0000 N   0  0  0  0  0  0  0  0  0  0  0  0
   10.6431   -6.9774    0.0000 N   0  0  0  0  0  0  0  0  0  0  0  0
   13.5465   -4.8612    0.0000 C   0  0  0  0  0  0  0  0  0  0  0  0
   13.1134   -6.9982    0.0000 C   0  0  0  0  0  0  0  0  0  0  0  0
   11.9052   -3.4199    0.0000 C   0  0  0  0  0  0  0  0  0  0  0  0
   11.0472   -7.6938    0.0000 C   0  0  0  0  0  0  0  0  0  0  0  0
    9.1934   -2.3577    0.0000 C   0  0  0  0  0  0  0  0  0  0  0  0
    7.3399   -5.5403    0.0000 C   0  0  0  0  0  0  0  0  0  0  0  0
   13.5340   -6.2859    0.0000 C   0  0  0  0  0  0  0  0  0  0  0  0
   13.1384   -4.1406    0.0000 C   0  0  0  0  0  0  0  0  0  0  0  0
    2.7701   -2.7660    0.0000 C   0  0  0  0  0  0  0  0  0  0  0  0
    7.0524   -2.7660    0.0000 C   0  0  0  0  0  0  0  0  0  0  0  0
    3.4783   -2.3577    0.0000 N   0  0  0  0  0  0  0  0  0  0  0  0
    7.7647   -2.3577    0.0000 N   0  0  0  0  0  0  0  0  0  0  0  0
    9.8478   -7.2006    0.0000 C   0  0  0  0  0  0  0  0  0  0  0  0
   11.8802   -7.6980    0.0000 C   0  0  0  0  0  0  0  0  0  0  0  0
   11.0805   -3.4158    0.0000 C   0  0  0  0  0  0  0  0  0  0  0  0
    8.4811   -2.7660    0.0000 C   0  0  0  0  0  0  0  0  0  0  0  0
    4.1906   -2.7660    0.0000 C   0  0  0  0  0  0  0  0  0  0  0  0
    1.3371   -2.7660    0.0000 N   0  0  0  0  0  0  0  0  0  0  0  0
    7.7605   -4.8237    0.0000 N   0  0  0  0  0  0  0  0  0  0  0  0
    2.0495   -2.3577    0.0000 C   0  0  0  0  0  0  0  0  0  0  0  0
    0.6248   -2.3577    0.0000 C   0  0  0  0  0  0  0  0  0  0  0  0
    5.6236   -2.7660    0.0000 N   0  0  0  0  0  0  0  0  0  0  0  0
    8.5728   -7.6813    0.0000 O   0  0  0  0  0  0  0  0  0  0  0  0
   14.3714   -4.8654    0.0000 O   0  0  0  0  0  0  0  0  0  0  0  0
   13.5257   -7.7105    0.0000 O   0  0  0  0  0  0  0  0  0  0  0  0
   12.3261   -2.7076    0.0000 O   0  0  0  0  0  0  0  0  0  0  0  0
   10.6306   -8.4103    0.0000 O   0  0  0  0  0  0  0  0  0  0  0  0
    9.9058   -2.7576    0.0000 O   0  0  0  0  0  0  0  0  0  0  0  0
    6.3276   -2.3577    0.0000 C   0  0  0  0  0  0  0  0  0  0  0  0
    4.9070   -2.3577    0.0000 C   0  0  0  0  0  0  0  0  0  0  0  0
    2.7701   -3.5908    0.0000 O   0  0  0  0  0  0  0  0  0  0  0  0
    7.0524   -3.5908    0.0000 O   0  0  0  0  0  0  0  0  0  0  0  0
    6.5151   -5.5403    0.0000 O   0  0  0  0  0  0  0  0  0  0  0  0
   13.5590   -3.4283    0.0000 C   0  0  0  0  0  0  0  0  0  0  0  0
   14.3589   -6.2901    0.0000 C   0  0  0  0  0  0  0  0  0  0  0  0
    7.3399   -6.9649    0.0000 C   0  0  0  0  0  0  0  0  0  0  0  0
    0.6248   -1.5371    0.0000 O   0  0  0  0  0  0  0  0  0  0  0  0
    4.1906   -3.5908    0.0000 C   0  0  0  0  0  0  0  0  0  0  0  0
    8.4811   -3.5908    0.0000 C   0  0  0  0  0  0  0  0  0  0  0  0
    7.7647   -4.0072    0.0000 C   0  0  0  0  0  0  0  0  0  0  0  0
   12.2802   -8.4228    0.0000 C   0  0  0  0  0  0  0  0  0  0  0  0
   11.5013   -2.7035    0.0000 C   0  0  0  0  0  0  0  0  0  0  0  0
    9.7594   -8.0632    0.0000 C   0  0  0  0  0  0  0  0  0  0  0  0
    2.0495   -1.5371    0.0000 C   0  0  0  0  0  0  0  0  0  0  0  0
    6.3276   -1.5371    0.0000 C   0  0  0  0  0  0  0  0  0  0  0  0
    9.1060   -9.1531    0.0000 N   0  0  0  0  0  0  0  0  0  0  0  0
    5.6236   -0.2958    0.0000 N   0  0  0  0  0  0  0  0  0  0  0  0
    1.3371   -0.2958    0.0000 N   0  0  0  0  0  0  0  0  0  0  0  0
   11.5054   -1.2705    0.0000 N   0  0  0  0  0  0  0  0  0  0  0  0
   12.2677   -9.8433    0.0000 N   0  0  0  0  0  0  0  0  0  0  0  0
    7.7522   -7.6730    0.0000 O   0  0  0  0  0  0  0  0  0  0  0  0
    3.4783   -4.0072    0.0000 O   0  0  0  0  0  0  0  0  0  0  0  0
   14.3838   -3.4324    0.0000 C   0  0  0  0  0  0  0  0  0  0  0  0
   14.7629   -7.0107    0.0000 C   0  0  0  0  0  0  0  0  0  0  0  0
   -0.0958   -2.7660    0.0000 C   0  0  0  0  0  0  0  0  0  0  0  0
   11.0889   -1.9870    0.0000 C   0  0  0  0  0  0  0  0  0  0  0  0
    9.0977   -8.2105    0.0000 C   0  0  0  0  0  0  0  0  0  0  0  0
   11.8677   -9.1352    0.0000 C   0  0  0  0  0  0  0  0  0  0  0  0
    1.3371   -1.1205    0.0000 C   0  0  0  0  0  0  0  0  0  0  0  0
    5.6236   -1.1205    0.0000 C   0  0  0  0  0  0  0  0  0  0  0  0
    6.5151   -6.9649    0.0000 C   0  0  0  0  0  0  0  0  0  0  0  0
    4.9070   -4.0072    0.0000 C   0  0  0  0  0  0  0  0  0  0  0  0
   -2.9451   -2.7660    0.0000 C   0  0  0  0  0  0  0  0  0  0  0  0
   -0.7998   -2.3577    0.0000 C   0  0  0  0  0  0  0  0  0  0  0  0
   -3.6616   -2.3577    0.0000 C   0  0  0  0  0  0  0  0  0  0  0  0
   -2.2327   -2.3577    0.0000 C   0  0  0  0  0  0  0  0  0  0  0  0
   14.8004   -2.7326    0.0000 C   0  0  0  0  0  0  0  0  0  0  0  0
   14.7879   -4.1572    0.0000 C   0  0  0  0  0  0  0  0  0  0  0  0
   14.3464   -7.7230    0.0000 C   0  0  0  0  0  0  0  0  0  0  0  0
   15.5918   -7.0149    0.0000 C   0  0  0  0  0  0  0  0  0  0  0  0
   -1.5204   -2.7660    0.0000 C   0  0  0  0  0  0  0  0  0  0  0  0
   -2.9451   -3.6074    0.0000 C   0  0  0  0  0  0  0  0  0  0  0  0
   -3.6616   -1.5121    0.0000 C   0  0  0  0  0  0  0  0  0  0  0  0
    8.2495   -7.1284    0.0000 H   0  0  0  0  0  0  0  0  0  0  0  0
  5 22  1  0
  6  1  1  0
  7 13  1  0
  8 21  1  0
  9  3  1  0
 10  5  1  0
 11 23  1  0
 12  8  1  0
 13 24  1  0
  2 14  1  0
 15 10  1  0
 16  9  1  0
 17 19  1  0
 18 20  1  0
 25 19  1  1
 24 20  1  6
 21  6  1  0
 22 12  1  0
 23  7  1  0
 24 47  1  0
 25 38  1  0
 28 26  1  1
 27 14  1  0
 28 17  1  0
 29 26  1  0
 37 30  1  1
 31  6  2  0
 32  9  2  0
 33 10  2  0
 34 11  2  0
 35 12  2  0
 36 13  2  0
 37 18  1  0
 38 30  1  0
 39 17  2  0
 40 18  2  0
 41 14  2  0
 16 42  1  6
 15 43  1  1
 44  2  1  0
 45 29  2  0
 46 25  1  0
 47 48  1  0
 48 27  1  0
 22 49  1  1
 23 50  1  6
 21 51  1  1
 52 28  1  0
 53 37  1  0
 54 65  1  0
 55 68  1  0
 56 67  1  0
 57 64  1  0
 58 66  1  0
 44 59  1  6
 46 60  1  1
 61 42  1  0
 62 43  1  0
 63 29  1  0
 64 50  1  0
 65 51  1  0
 66 49  1  0
 67 52  1  0
 68 53  1  0
 69 44  1  0
 70 46  1  0
 71 74  1  0
 72 63  1  0
 73 71  1  0
 74 79  1  0
 75 61  1  0
 76 61  1  0
 77 62  1  0
 78 62  1  0
 79 72  1  0
 80 71  1  0
  4 16  1  0
  2  1  1  0
  3 15  1  0
  4 11  1  0
  2 81  1  6
 86103  1  0
 87 82  1  0
 88 94  1  0
 89102  1  0
 90 84  1  0
 91 86  1  0
 92104  1  0
 93 89  1  0
 94105  1  0
 83 95  1  0
 96 91  1  0
 97 90  1  0
 98100  1  0
 99101  1  0
106100  1  1
105101  1  6
102 87  1  0
103 93  1  0
104 88  1  0
105128  1  0
106119  1  0
109107  1  1
108 95  1  0
109 98  1  0
110107  1  0
118111  1  1
112 87  2  0
113 90  2  0
114 91  2  0
115 92  2  0
116 93  2  0
117 94  2  0
118 99  1  0
119111  1  0
120 98  2  0
121 99  2  0
122 95  2  0
 97123  1  6
 96124  1  1
125 83  1  0
126110  2  0
127106  1  0
128129  1  0
129108  1  0
103130  1  1
104131  1  6
102132  1  1
133109  1  0
134118  1  0
135146  1  0
136149  1  0
137148  1  0
138145  1  0
139147  1  0
125140  1  6
127141  1  1
142123  1  0
143124  1  0
144110  1  0
145131  1  0
146132  1  0
147130  1  0
148133  1  0
149134  1  0
150125  1  0
151127  1  0
152155  1  0
153144  1  0
154152  1  0
155160  1  0
156142  1  0
157142  1  0
158143  1  0
159143  1  0
160153  1  0
161152  1  0
162154  1  0
 85 97  1  0
 83 82  1  0
 84 96  1  0
 85 92  1  0
 83163  1  6
M  END

> <chembl_id>
CHEMBL2221249

> <chembl_pref_name>
COLISTIN

$$$$

     RDKit          2D

 35 39  0  0  1  0  0  0  0  0999 V2000
    4.8750   -4.6792    0.0000 N   0  0  0  0  0  0  0  0  0  0  0  0
    4.8792   -3.9667    0.0000 C   0  0  0  0  0  0  0  0  0  0  0  0
    4.1500   -4.6792    0.0000 C   0  0  0  0  0  0  0  0  0  0  0  0
    4.1542   -3.9625    0.0000 C   0  0  0  0  0  0  0  0  0  0  0  0
    5.5542   -4.9042    0.0000 C   0  0  0  0  0  0  0  0  0  0  0  0
    5.5542   -3.7625    0.0000 S   0  0  0  0  0  0  0  0  0  0  0  0
    5.9667   -4.3542    0.0000 C   0  0  0  0  0  0  0  0  0  0  0  0
    5.7917   -5.5875    0.0000 C   0  0  0  0  0  0  0  0  0  0  0  0
    6.7250   -6.4000    0.0000 C   0  0  0  0  0  0  0  0  0  0  0  0
    6.3042   -6.9542    0.0000 O   0  0  0  0  0  0  0  0  0  0  0  0
    3.6667   -3.4417    0.0000 N   0  0  0  0  0  0  0  0  0  0  0  0
    6.6792   -7.5292    0.0000 C   0  0  0  0  0  0  0  0  0  0  0  0
    6.5167   -5.7167    0.0000 O   0  0  0  0  0  0  0  0  0  0  0  0
    2.9667   -3.6167    0.0000 C   0  0  0  0  0  0  0  0  0  0  0  0
    7.4167   -6.6292    0.0000 C   0  0  0  0  0  0  0  0  0  0  0  0
    7.4000   -7.3375    0.0000 C   0  0  0  0  0  0  0  0  0  0  0  0
    2.4667   -3.1125    0.0000 C   0  0  0  0  0  0  0  0  0  0  0  0
    3.6417   -5.1667    0.0000 O   0  0  0  0  0  0  0  0  0  0  0  0
    5.3000   -6.1375    0.0000 O   0  0  0  0  0  0  0  0  0  0  0  0
    6.5125   -8.1167    0.0000 O   0  0  0  0  0  0  0  0  0  0  0  0
    2.7917   -4.3000    0.0000 O   0  0  0  0  0  0  0  0  0  0  0  0
    1.7792   -3.3042    0.0000 C   0  0  0  0  0  0  0  0  0  0  0  0
    2.6417   -2.4375    0.0000 N   0  0  0  0  0  0  0  0  0  0  0  0
    6.5667   -3.9542    0.0000 C   0  0  0  0  0  0  0  0  0  0  0  0
    6.6042   -4.6750    0.0000 C   0  0  0  0  0  0  0  0  0  0  0  0
    8.0000   -7.7042    0.0000 C   0  0  0  0  0  0  0  0  0  0  0  0
    8.0292   -6.2792    0.0000 C   0  0  0  0  0  0  0  0  0  0  0  0
    1.2875   -2.8125    0.0000 C   0  0  0  0  0  0  0  0  0  0  0  0
    1.6042   -3.9875    0.0000 C   0  0  0  0  0  0  0  0  0  0  0  0
    8.6167   -7.3625    0.0000 C   0  0  0  0  0  0  0  0  0  0  0  0
    8.6375   -6.6417    0.0000 C   0  0  0  0  0  0  0  0  0  0  0  0
    0.9292   -4.1667    0.0000 C   0  0  0  0  0  0  0  0  0  0  0  0
    0.6042   -3.0000    0.0000 C   0  0  0  0  0  0  0  0  0  0  0  0
    0.4292   -3.6792    0.0000 C   0  0  0  0  0  0  0  0  0  0  0  0
    4.7357   -2.9770    0.0000 H   0  0  0  0  0  0  0  0  0  0  0  0
  2  1  1  0
  3  1  1  0
  4  3  1  0
  5  1  1  0
  6  2  1  0
  7  5  1  0
  5  8  1  6
  9 13  1  0
 10  9  1  0
  4 11  1  1
 12 10  1  0
 13  8  1  0
 14 11  1  0
 15  9  1  0
 16 15  2  0
 17 14  1  0
 18  3  2  0
 19  8  2  0
 20 12  2  0
 21 14  2  0
 22 17  1  0
 17 23  1  1
 24  7  1  0
 25  7  1  0
 26 16  1  0
 27 15  1  0
 28 22  1  0
 29 22  2  0
 30 31  1  0
 31 27  2  0
 32 29  1  0
 33 28  2  0
 34 33  1  0
  6  7  1  0
  2  4  1  0
 16 12  1  0
 26 30  2  0
 32 34  2  0
  2 35  1  6
M  END

> <chembl_id>
CHEMBL1619785

> <chembl_pref_name>
TALAMPICILLIN

$$$$

     RDKit          2D

 24 26  0  0  0  0  0  0  0  0999 V2000
   -0.1216   -0.1738    0.0000 C   0  0  0  0  0  0  0  0  0  0  0  0
    0.6989   -0.0876    0.0000 C   0  0  0  0  0  0  0  0  0  0  0  0
   -1.0190    2.5882    0.0000 C   0  0  0  0  0  0  0  0  0  0  0  0
   -0.4572   -0.9275    0.0000 C   0  0  0  0  0  0  0  0  0  0  0  0
    0.0278   -1.5949    0.0000 C   0  0  0  0  0  0  0  0  0  0  0  0
   -0.6065    0.4936    0.0000 N   0  0  0  0  0  0  0  0  0  0  0  0
   -0.3516    1.2783    0.0000 C   0  0  0  0  0  0  0  0  0  0  0  0
   -1.4315    0.4936    0.0000 C   0  0  0  0  0  0  0  0  0  0  0  0
   -1.0190    1.7632    0.0000 C   0  0  0  0  0  0  0  0  0  0  0  0
   -1.6865    1.2783    0.0000 O   0  0  0  0  0  0  0  0  0  0  0  0
   -1.7335    3.0007    0.0000 N   0  0  0  0  0  0  0  0  0  0  0  0
   -1.7335    3.8257    0.0000 C   0  0  0  0  0  0  0  0  0  0  0  0
   -2.4480    4.2382    0.0000 C   0  0  0  0  0  0  0  0  0  0  0  0
   -1.0190    4.2382    0.0000 O   0  0  0  0  0  0  0  0  0  0  0  0
   -1.9165   -0.1738    0.0000 O   0  0  0  0  0  0  0  0  0  0  0  0
    1.1838   -0.7550    0.0000 C   0  0  0  0  0  0  0  0  0  0  0  0
    0.8482   -1.5087    0.0000 C   0  0  0  0  0  0  0  0  0  0  0  0
    2.0043   -0.6688    0.0000 F   0  0  0  0  0  0  0  0  0  0  0  0
    1.3332   -2.1761    0.0000 N   0  0  0  0  0  0  0  0  0  0  0  0
    0.9976   -2.9298    0.0000 C   0  0  0  0  0  0  0  0  0  0  0  0
    1.4825   -3.5972    0.0000 C   0  0  0  0  0  0  0  0  0  0  0  0
    2.3030   -3.5110    0.0000 O   0  0  0  0  0  0  0  0  0  0  0  0
    2.6386   -2.7573    0.0000 C   0  0  0  0  0  0  0  0  0  0  0  0
    2.1536   -2.0899    0.0000 C   0  0  0  0  0  0  0  0  0  0  0  0
  1  2  2  0
  4  1  1  0
  1  6  1  0
 16  2  1  0
  9  3  1  1
  3 11  1  0
  4  5  2  0
 17  5  1  0
  7  6  1  0
  8  6  1  0
  7  9  1  0
  8 10  1  0
  8 15  2  0
  9 10  1  0
 12 11  1  0
 12 13  1  0
 12 14  2  0
 16 17  2  0
 16 18  1  0
 17 19  1  0
 20 19  1  0
 24 19  1  0
 20 21  1  0
 21 22  1  0
 23 22  1  0
 23 24  1  0
M  END

> <chembl_id>
CHEMBL126

> <chembl_pref_name>
LINEZOLID

$$$$

     RDKit          2D

 21 21  0  0  0  0  0  0  0  0999 V2000
   -7.1911   21.2182    0.0000 C   0  0  0  0  0  0  0  0  0  0  0  0
   -7.9056   20.8057    0.0000 Cl  0  0  0  0  0  0  0  0  0  0  0  0
   -7.1911   22.0432    0.0000 Cl  0  0  0  0  0  0  0  0  0  0  0  0
   -6.4766   20.8057    0.0000 C   0  0  0  0  0  0  0  0  0  0  0  0
   -6.4766   19.9807    0.0000 O   0  0  0  0  0  0  0  0  0  0  0  0
   -5.7622   21.2182    0.0000 N   0  0  0  0  0  0  0  0  0  0  0  0
   -5.0477   20.8057    0.0000 C   0  0  0  0  0  0  0  0  0  0  0  0
   -5.0477   19.9807    0.0000 C   0  0  0  0  0  0  0  0  0  0  0  0
   -4.3332   19.5682    0.0000 O   0  0  0  0  0  0  0  0  0  0  0  0
   -4.3332   21.2182    0.0000 C   0  0  0  0  0  0  0  0  0  0  0  0
   -4.3332   22.0432    0.0000 O   0  0  0  0  0  0  0  0  0  0  0  0
   -3.6187   20.8057    0.0000 C   0  0  0  0  0  0  0  0  0  0  0  0
   -2.9043   21.2182    0.0000 C   0  0  0  0  0  0  0  0  0  0  0  0
   -2.1898   20.8057    0.0000 C   0  0  0  0  0  0  0  0  0  0  0  0
   -2.1898   19.9807    0.0000 C   0  0  0  0  0  0  0  0  0  0  0  0
   -0.7609   19.1557    0.0000 O   0  0  0  0  0  0  0  0  0  0  0  0
   -1.8878   18.8538    0.0000 O   0  0  0  0  0  0  0  0  0  0  0  0
   -2.9043   19.5682    0.0000 C   0  0  0  0  0  0  0  0  0  0  0  0
   -3.6187   19.9807    0.0000 C   0  0  0  0  0  0  0  0  0  0  0  0
   -1.0628   20.2827    0.0000 C   0  0  0  0  0  0  0  0  0  0  0  0
   -1.4753   19.5682    0.0000 S   0  0  0  0  0  0  0  0  0  0  0  0
  1  2  1  0
  1  3  1  0
  1  4  1  0
  4  5  2  0
  4  6  1  0
  7  6  1  1
  7  8  1  0
  7 10  1  0
  8  9  1  0
 10 11  1  6
 10 12  1  0
 12 13  1  0
 19 12  2  0
 13 14  2  0
 14 15  1  0
 18 15  2  0
 15 21  1  0
 16 21  2  0
 17 21  2  0
 18 19  1  0
 20 21  1  0
M  END

> <chembl_id>
CHEMBL1236282

> <chembl_pref_name>
THIAMPHENICOL

$$$$

     RDKit          2D

 26 28  0  0  0  0  0  0  0  0999 V2000
   -1.2293   -1.4334    0.0000 C   0  0  0  0  0  0  0  0  0  0  0  0
   -1.2293   -2.2585    0.0000 C   0  0  0  0  0  0  0  0  0  0  0  0
   -0.5171   -2.6669    0.0000 N   0  0  0  0  0  0  0  0  0  0  0  0
   -0.5171   -1.0168    0.0000 C   0  0  0  0  0  0  0  0  0  0  0  0
    0.1949   -1.4334    0.0000 C   0  0  0  0  0  0  0  0  0  0  0  0
    0.1933   -2.2567    0.0000 C   0  0  0  0  0  0  0  0  0  0  0  0
    0.9043   -2.6679    0.0000 C   0  0  0  0  0  0  0  0  0  0  0  0
    1.6174   -2.2570    0.0000 C   0  0  0  0  0  0  0  0  0  0  0  0
    1.6150   -1.4306    0.0000 C   0  0  0  0  0  0  0  0  0  0  0  0
    0.9034   -1.0232    0.0000 C   0  0  0  0  0  0  0  0  0  0  0  0
   -1.9450   -1.0230    0.0000 C   0  0  0  0  0  0  0  0  0  0  0  0
   -1.9475   -0.1979    0.0000 O   0  0  0  0  0  0  0  0  0  0  0  0
   -2.6583   -1.4376    0.0000 O   0  0  0  0  0  0  0  0  0  0  0  0
   -0.5171   -0.1917    0.0000 O   0  0  0  0  0  0  0  0  0  0  0  0
   -0.5159   -3.4920    0.0000 C   0  0  0  0  0  0  0  0  0  0  0  0
   -1.2299   -3.9055    0.0000 C   0  0  0  0  0  0  0  0  0  0  0  0
   -1.2287   -4.7306    0.0000 F   0  0  0  0  0  0  0  0  0  0  0  0
    0.9036   -3.4930    0.0000 F   0  0  0  0  0  0  0  0  0  0  0  0
    2.3282   -1.0158    0.0000 F   0  0  0  0  0  0  0  0  0  0  0  0
    2.3291   -2.6667    0.0000 N   0  0  0  0  0  0  0  0  0  0  0  0
    2.3279   -3.4927    0.0000 C   0  0  0  0  0  0  0  0  0  0  0  0
    3.0388   -3.9044    0.0000 C   0  0  0  0  0  0  0  0  0  0  0  0
    3.7553   -3.4947    0.0000 N   0  0  0  0  0  0  0  0  0  0  0  0
    3.7565   -2.6687    0.0000 C   0  0  0  0  0  0  0  0  0  0  0  0
    3.0411   -2.2524    0.0000 C   0  0  0  0  0  0  0  0  0  0  0  0
    4.4687   -3.9092    0.0000 C   0  0  0  0  0  0  0  0  0  0  0  0
  5  6  2  0
 11 13  1  0
  1  4  1  0
  4 14  2  0
  6  7  1  0
  3 15  1  0
  2  3  1  0
 15 16  1  0
  7  8  2  0
 16 17  1  0
  3  6  1  0
  7 18  1  0
  8  9  1  0
  9 19  1  0
 20 21  1  0
  5  4  1  0
  9 10  2  0
 10  5  1  0
  1 11  1  0
  1  2  2  0
 20 25  1  0
 21 22  1  0
 22 23  1  0
 23 24  1  0
 24 25  1  0
  8 20  1  0
 11 12  2  0
 23 26  1  0
M  END

> <chembl_id>
CHEMBL6273

> <chembl_pref_name>
FLEROXACIN

$$$$

     RDKit          2D

 27 29  0  0  0  0  0  0  0  0999 V2000
    1.5998   -6.8139    0.0000 N   0  0  0  0  0  0  0  0  0  0  0  0
    0.7748   -6.8229    0.0000 C   0  0  0  0  0  0  0  0  0  0  0  0
    0.7748   -6.0025    0.0000 C   0  0  0  0  0  0  0  0  0  0  0  0
    1.5998   -6.0025    0.0000 C   0  0  0  0  0  0  0  0  0  0  0  0
    2.3062   -7.2241    0.0000 C   0  0  0  0  0  0  0  0  0  0  0  0
   -2.0920   -5.9798    0.0000 C   0  0  0  0  0  0  0  0  0  0  0  0
   -1.3719   -5.5787    0.0000 C   0  0  0  0  0  0  0  0  0  0  0  0
   -2.8760   -5.7200    0.0000 N   0  0  0  0  0  0  0  0  0  0  0  0
    0.0547   -5.5833    0.0000 N   0  0  0  0  0  0  0  0  0  0  0  0
   -0.6563   -5.9935    0.0000 C   0  0  0  0  0  0  0  0  0  0  0  0
    2.3062   -5.5833    0.0000 S   0  0  0  0  0  0  0  0  0  0  0  0
   -3.3636   -6.3854    0.0000 C   0  0  0  0  0  0  0  0  0  0  0  0
    3.0172   -6.8139    0.0000 C   0  0  0  0  0  0  0  0  0  0  0  0
   -2.0920   -6.8139    0.0000 C   0  0  0  0  0  0  0  0  0  0  0  0
   -2.8850   -7.0600    0.0000 S   0  0  0  0  0  0  0  0  0  0  0  0
    2.3062   -8.0535    0.0000 C   0  0  0  0  0  0  0  0  0  0  0  0
    3.0172   -5.9935    0.0000 C   0  0  0  0  0  0  0  0  0  0  0  0
   -1.3673   -4.7492    0.0000 N   0  0  0  0  0  0  0  0  0  0  0  0
    0.0547   -7.2331    0.0000 O   0  0  0  0  0  0  0  0  0  0  0  0
    3.7328   -7.2377    0.0000 C   0  0  0  0  0  0  0  0  0  0  0  0
   -0.6700   -6.8229    0.0000 O   0  0  0  0  0  0  0  0  0  0  0  0
    1.5861   -8.4637    0.0000 O   0  0  0  0  0  0  0  0  0  0  0  0
   -4.1886   -6.3854    0.0000 N   0  0  0  0  0  0  0  0  0  0  0  0
    4.4438   -6.8139    0.0000 C   0  0  0  0  0  0  0  0  0  0  0  0
    3.0172   -8.4683    0.0000 O   0  0  0  0  0  0  0  0  0  0  0  0
   -0.6563   -4.3390    0.0000 O   0  0  0  0  0  0  0  0  0  0  0  0
    1.5952   -5.1776    0.0000 H   0  0  0  0  0  0  0  0  0  0  0  0
  2  1  1  0
  3  4  1  0
  4  1  1  0
  5  1  1  0
  6  7  1  0
  7 10  1  0
  8  6  1  0
  3  9  1  1
 10  9  1  0
  4 11  1  0
 12  8  2  0
 13  5  2  0
 14  6  2  0
 15 14  1  0
 16  5  1  0
 17 13  1  0
 18  7  2  0
 19  2  2  0
 20 13  1  0
 21 10  2  0
 22 16  2  0
 23 12  1  0
 24 20  2  0
 25 16  1  0
 26 18  1  0
  3  2  1  0
 11 17  1  0
 12 15  1  0
  4 27  1  6
M  END

> <chembl_id>
CHEMBL927

> <chembl_pref_name>
CEFDINIR

$$$$

     RDKit          2D

 30 32  0  0  0  0  0  0  0  0999 V2000
  -12.0115   -6.9373    0.0000 N   0  0  0  0  0  0  0  0  0  0  0  0
  -12.8365   -6.9373    0.0000 C   0  0  0  0  0  0  0  0  0  0  0  0
  -12.8365   -6.0882    0.0000 C   0  0  0  0  0  0  0  0  0  0  0  0
  -12.0115   -6.1026    0.0000 C   0  0  0  0  0  0  0  0  0  0  0  0
  -11.2879   -7.3619    0.0000 C   0  0  0  0  0  0  0  0  0  0  0  0
  -13.5458   -5.6829    0.0000 N   0  0  0  0  0  0  0  0  0  0  0  0
  -14.2550   -6.0978    0.0000 C   0  0  0  0  0  0  0  0  0  0  0  0
  -14.9546   -5.6684    0.0000 C   0  0  0  0  0  0  0  0  0  0  0  0
  -11.2879   -5.6829    0.0000 S   0  0  0  0  0  0  0  0  0  0  0  0
  -10.5642   -6.9373    0.0000 C   0  0  0  0  0  0  0  0  0  0  0  0
  -11.2879   -8.1869    0.0000 C   0  0  0  0  0  0  0  0  0  0  0  0
  -15.6734   -6.0688    0.0000 C   0  0  0  0  0  0  0  0  0  0  0  0
   -8.4221   -7.3329    0.0000 C   0  0  0  0  0  0  0  0  0  0  0  0
  -10.5642   -6.1026    0.0000 C   0  0  0  0  0  0  0  0  0  0  0  0
  -14.9401   -4.8579    0.0000 N   0  0  0  0  0  0  0  0  0  0  0  0
  -13.4010   -7.5211    0.0000 O   0  0  0  0  0  0  0  0  0  0  0  0
  -15.9098   -6.8408    0.0000 O   0  0  0  0  0  0  0  0  0  0  0  0
   -9.8405   -7.3474    0.0000 C   0  0  0  0  0  0  0  0  0  0  0  0
  -14.2405   -6.9083    0.0000 O   0  0  0  0  0  0  0  0  0  0  0  0
  -10.5690   -8.5776    0.0000 O   0  0  0  0  0  0  0  0  0  0  0  0
  -16.3151   -5.5816    0.0000 C   0  0  0  0  0  0  0  0  0  0  0  0
   -9.1361   -6.9373    0.0000 O   0  0  0  0  0  0  0  0  0  0  0  0
   -8.4269   -8.1530    0.0000 O   0  0  0  0  0  0  0  0  0  0  0  0
  -11.9971   -8.5921    0.0000 O   0  0  0  0  0  0  0  0  0  0  0  0
  -16.7589   -6.8359    0.0000 C   0  0  0  0  0  0  0  0  0  0  0  0
  -17.0050   -6.0592    0.0000 C   0  0  0  0  0  0  0  0  0  0  0  0
   -7.7418   -6.8987    0.0000 N   0  0  0  0  0  0  0  0  0  0  0  0
  -12.0454   -5.3066    0.0000 H   0  0  0  0  0  0  0  0  0  0  0  0
  -14.2256   -4.4454    0.0000 O   0  0  0  0  0  0  0  0  0  0  0  0
  -14.2256   -3.6204    0.0000 C   0  0  0  0  0  0  0  0  0  0  0  0
  2  1  1  0
  3  4  1  0
  4  1  1  0
  5  1  1  0
  3  6  1  1
  7  6  1  0
  8  7  1  0
  9  4  1  0
 10  5  2  0
 11  5  1  0
 12  8  1  0
 13 22  1  0
 14 10  1  0
 15  8  2  0
 16  2  2  0
 17 12  1  0
 18 10  1  0
 19  7  2  0
 20 11  1  0
 21 12  2  0
 22 18  1  0
 23 13  2  0
 24 11  2  0
 25 17  1  0
 26 21  1  0
 27 13  1  0
  4 28  1  6
  3  2  1  0
 14  9  1  0
 25 26  2  0
 15 29  1  0
 29 30  1  0
M  END

> <chembl_id>
CHEMBL1436

> <chembl_pref_name>
CEFUROXIME

$$$$

     RDKit          2D

 57 59  0  0  1  0  0  0  0  0999 V2000
   -2.9759   -9.9589    0.0000 O   0  0  0  0  0  0  0  0  0  0  0  0
   -3.3884   -9.2445    0.0000 C   0  0  0  0  0  0  0  0  0  0  0  0
   -4.2134   -9.2445    0.0000 C   0  0  0  0  0  0  0  0  0  0  0  0
   -4.6259   -9.9589    0.0000 C   0  0  0  0  0  0  0  0  0  0  0  0
   -4.2134  -10.6734    0.0000 C   0  0  0  0  0  0  0  0  0  0  0  0
   -3.3884  -10.6734    0.0000 O   0  0  0  0  0  0  0  0  0  0  0  0
   -4.6259  -11.3879    0.0000 C   0  0  0  0  0  0  0  0  0  0  0  0
   -4.2134  -12.1024    0.0000 C   0  0  0  0  0  0  0  0  0  0  0  0
   -3.3884  -12.1024    0.0000 C   0  0  0  0  0  0  0  0  0  0  0  0
   -2.1509  -11.3879    0.0000 C   0  0  0  0  0  0  0  0  0  0  0  0
   -1.7384  -12.1024    0.0000 C   0  0  0  0  0  0  0  0  0  0  0  0
   -2.1509  -12.8168    0.0000 C   0  0  0  0  0  0  0  0  0  0  0  0
   -2.9759  -12.8168    0.0000 C   0  0  0  0  0  0  0  0  0  0  0  0
   -2.1509   -9.9589    0.0000 C   0  0  0  0  0  0  0  0  0  0  0  0
   -1.7384  -10.6734    0.0000 C   0  0  0  0  0  0  0  0  0  0  0  0
   -2.9759   -8.5300    0.0000 O   0  0  0  0  0  0  0  0  0  0  0  0
   -2.1509   -8.5299    0.0000 C   0  0  0  0  0  0  0  0  0  0  0  0
   -1.7384   -9.2444    0.0000 C   0  0  0  0  0  0  0  0  0  0  0  0
   -2.8050  -11.2568    0.0000 C   0  0  0  0  0  0  0  0  0  0  0  0
   -1.7384   -7.8155    0.0000 C   0  0  0  0  0  0  0  0  0  0  0  0
   -1.7384  -13.5313    0.0000 O   0  0  0  0  0  0  0  0  0  0  0  0
   -3.3884  -13.5313    0.0000 C   0  0  0  0  0  0  0  0  0  0  0  0
   -5.4509  -11.3878    0.0000 O   0  0  0  0  0  0  0  0  0  0  0  0
   -5.8635  -12.1023    0.0000 O   0  0  0  0  0  0  0  0  0  0  0  0
   -5.4510  -12.8168    0.0000 C   0  0  0  0  0  0  0  0  0  0  0  0
   -4.6260  -12.8168    0.0000 C   0  0  0  0  0  0  0  0  0  0  0  0
   -6.2759  -11.3878    0.0000 C   0  0  0  0  0  0  0  0  0  0  0  0
   -6.6884  -10.6734    0.0000 O   0  0  0  0  0  0  0  0  0  0  0  0
   -7.5135  -10.6734    0.0000 C   0  0  0  0  0  0  0  0  0  0  0  0
   -7.9260  -11.3878    0.0000 C   0  0  0  0  0  0  0  0  0  0  0  0
   -7.5135  -12.1023    0.0000 C   0  0  0  0  0  0  0  0  0  0  0  0
   -6.6884  -12.1023    0.0000 C   0  0  0  0  0  0  0  0  0  0  0  0
   -6.2760  -12.8168    0.0000 O   0  0  0  0  0  0  0  0  0  0  0  0
   -7.9260  -12.8168    0.0000 N   0  0  0  0  0  0  0  0  0  0  0  0
   -7.5135  -13.5313    0.0000 C   0  0  0  0  0  0  0  0  0  0  0  0
   -8.7510  -12.8168    0.0000 C   0  0  0  0  0  0  0  0  0  0  0  0
   -8.7510  -11.3878    0.0000 O   0  0  0  0  0  0  0  0  0  0  0  0
   -9.5760  -11.3878    0.0000 C   0  0  0  0  0  0  0  0  0  0  0  0
   -7.9260   -9.9589    0.0000 C   0  0  0  0  0  0  0  0  0  0  0  0
   -5.4509   -9.9589    0.0000 C   0  0  0  0  0  0  0  0  0  0  0  0
   -5.8634  -10.6734    0.0000 O   0  0  0  0  0  0  0  0  0  0  0  0
   -5.8634   -9.2445    0.0000 O   0  0  0  0  0  0  0  0  0  0  0  0
   -6.6884   -9.2445    0.0000 C   0  0  0  0  0  0  0  0  0  0  0  0
   -7.1009   -8.5300    0.0000 C   0  0  0  0  0  0  0  0  0  0  0  0
   -9.9885  -10.6734    0.0000 O   0  0  0  0  0  0  0  0  0  0  0  0
  -10.8135  -10.6734    0.0000 C   0  0  0  0  0  0  0  0  0  0  0  0
  -11.2260  -11.3878    0.0000 C   0  0  0  0  0  0  0  0  0  0  0  0
  -10.8135  -12.1023    0.0000 C   0  0  0  0  0  0  0  0  0  0  0  0
   -9.9885  -12.1023    0.0000 C   0  0  0  0  0  0  0  0  0  0  0  0
  -11.2260   -9.9589    0.0000 C   0  0  0  0  0  0  0  0  0  0  0  0
  -12.0510  -11.3878    0.0000 O   0  0  0  0  0  0  0  0  0  0  0  0
  -11.6104  -12.3158    0.0000 O   0  0  0  0  0  0  0  0  0  0  0  0
  -10.8135  -12.9273    0.0000 C   0  0  0  0  0  0  0  0  0  0  0  0
  -12.7655  -10.9753    0.0000 C   0  0  0  0  0  0  0  0  0  0  0  0
  -13.4800  -11.3878    0.0000 C   0  0  0  0  0  0  0  0  0  0  0  0
  -14.1944  -10.9753    0.0000 C   0  0  0  0  0  0  0  0  0  0  0  0
  -12.7655  -10.1503    0.0000 O   0  0  0  0  0  0  0  0  0  0  0  0
  2  3  1  0
  3  4  1  0
  4  5  1  0
  5  7  1  0
  5  6  1  6
  8  9  1  0
 13  9  1  0
 10 11  2  0
 11 12  1  0
 12 13  1  0
 15 10  1  0
 14 15  2  0
  1  2  2  0
  2 16  1  0
 18 14  1  0
 16 17  1  0
 17 18  1  0
  6 19  1  0
 17 20  1  6
 12 21  1  6
 13 22  1  6
  7 23  1  6
  8  7  1  0
  8 26  1  6
 24 25  2  0
 25 26  1  0
 27 23  1  1
 27 28  1  0
 32 27  1  0
 28 29  1  0
 29 30  1  0
 30 31  1  0
 31 32  1  0
 32 33  1  6
 31 34  1  1
 34 35  1  0
 34 36  1  0
 30 37  1  6
 38 37  1  1
 29 39  1  1
  4 40  1  6
 40 41  2  0
 40 42  1  0
 42 43  1  0
 43 44  1  0
 38 45  1  0
 49 38  1  0
 45 46  1  0
 46 47  1  0
 47 48  1  0
 48 49  1  0
 46 50  1  6
 47 51  1  1
 48 52  1  1
 48 53  1  0
 51 54  1  0
 54 55  1  0
 55 56  1  0
 54 57  2  0
M  END

> <chembl_id>
CHEMBL1908336

> <chembl_pref_name>
MIDECAMYCIN

$$$$

     RDKit          2D

 15 16  0  0  1  0  0  0  0  0999 V2000
    0.2455   -2.1211    0.0000 C   0  0  0  0  0  0  0  0  0  0  0  0
    0.7500   -1.0323    0.0000 C   0  0  0  0  0  0  0  0  0  0  0  0
    1.9414   -0.8892    0.0000 C   0  0  0  0  0  0  0  0  0  0  0  0
    1.2135    0.3943    0.0000 C   0  0  0  0  0  0  0  0  0  0  0  0
    0.0000    1.2760    0.0000 N   0  0  0  0  0  0  0  0  0  0  0  0
   -1.2135    0.3943    0.0000 C   0  0  0  0  0  0  0  0  0  0  0  0
   -2.0931    1.6049    0.0000 C   0  0  0  0  0  0  0  0  0  0  0  0
   -0.8796    2.4866    0.0000 C   0  0  0  0  0  0  0  0  0  0  0  0
   -0.6918    3.6718    0.0000 O   0  0  0  0  0  0  0  0  0  0  0  0
   -0.7500   -1.0323    0.0000 S   0  0  0  0  0  0  0  0  0  0  0  0
   -0.2455   -2.1211    0.0000 O   0  0  0  0  0  0  0  0  0  0  0  0
   -1.9414   -0.8892    0.0000 O   0  0  0  0  0  0  0  0  0  0  0  0
    2.6394    0.8543    0.0000 C   0  0  0  0  0  0  0  0  0  0  0  0
    3.5300    0.0501    0.0000 O   0  0  0  0  0  0  0  0  0  0  0  0
    2.8910    2.0277    0.0000 O   0  0  0  0  0  0  0  0  0  0  0  0
  1  2  1  0
  2  3  1  0
  2  4  1  0
  4  5  1  0
  5  6  1  0
  6  7  1  6
  7  8  1  0
  8  5  1  0
  8  9  2  0
  6 10  1  0
 10  2  1  0
 10 11  2  0
 10 12  2  0
  4 13  1  1
 13 14  2  0
 13 15  1  0
M  END

> <chembl_id>
CHEMBL403

> <chembl_pref_name>
SULBACTAM

$$$$

     RDKit          2D

 28 29  0  0  0  0  0  0  0  0999 V2000
    1.6019    1.4825    0.0000 C   0  0  0  0  0  0  0  0  0  0  0  0
   -1.7340   -2.6605    0.0000 S   0  0  0  0  0  0  0  0  0  0  0  0
    1.6019   -1.3342    0.0000 O   0  0  0  0  0  0  0  0  0  0  0  0
    0.1935   -1.3548    0.0000 O   0  0  0  0  0  0  0  0  0  0  0  0
   -1.0440    0.7886    0.0000 O   0  0  0  0  0  0  0  0  0  0  0  0
    2.1852    0.0742    0.0000 N   0  0  0  0  0  0  0  0  0  0  0  0
    0.1935    0.0742    0.0000 N   0  0  0  0  0  0  0  0  0  0  0  0
   -1.4565    0.0742    0.0000 N   0  0  0  0  0  0  0  0  0  0  0  0
   -2.2770   -1.4410    0.0000 N   0  0  0  0  0  0  0  0  0  0  0  0
   -3.2022   -2.5835    0.0000 N   0  0  0  0  0  0  0  0  0  0  0  0
    3.0102    0.0742    0.0000 S   0  0  0  0  0  0  0  0  0  0  0  0
    1.6019    0.6575    0.0000 C   0  0  0  0  0  0  0  0  0  0  0  0
    1.0185    0.0742    0.0000 C   0  0  0  0  0  0  0  0  0  0  0  0
    1.6019   -0.5092    0.0000 C   0  0  0  0  0  0  0  0  0  0  0  0
   -0.2190   -0.6403    0.0000 C   0  0  0  0  0  0  0  0  0  0  0  0
   -1.0440   -0.6403    0.0000 C   0  0  0  0  0  0  0  0  0  0  0  0
   -1.4565    1.5031    0.0000 C   0  0  0  0  0  0  0  0  0  0  0  0
   -1.4565   -1.3548    0.0000 C   0  0  0  0  0  0  0  0  0  0  0  0
   -1.1209   -2.1084    0.0000 C   0  0  0  0  0  0  0  0  0  0  0  0
   -2.4485   -2.2480    0.0000 C   0  0  0  0  0  0  0  0  0  0  0  0
   -2.1710    1.0906    0.0000 C   0  0  0  0  0  0  0  0  0  0  0  0
   -0.7420    1.9156    0.0000 C   0  0  0  0  0  0  0  0  0  0  0  0
   -1.8690    2.2176    0.0000 C   0  0  0  0  0  0  0  0  0  0  0  0
   -1.4565    2.9321    0.0000 O   0  0  0  0  0  0  0  0  0  0  0  0
   -2.6940    2.2176    0.0000 O   0  0  0  0  0  0  0  0  0  0  0  0
    3.8352    0.0742    0.0000 O   0  0  0  0  0  0  0  0  0  0  0  0
    3.0102   -0.7508    0.0000 O   0  0  0  0  0  0  0  0  0  0  0  0
    3.0102    0.8992    0.0000 O   0  0  0  0  0  0  0  0  0  0  0  0
 12  1  1  6
 19  2  1  0
 20  2  1  0
 14  3  2  0
 15  4  2  0
  8  5  1  0
 17  5  1  0
  6 11  1  0
 12  6  1  0
 14  6  1  0
 13  7  1  1
 15  7  1  0
 16  8  2  0
 18  9  1  0
 20  9  2  0
 20 10  1  0
 26 11  2  0
 27 11  2  0
 28 11  1  0
 12 13  1  0
 13 14  1  0
 15 16  1  0
 16 18  1  0
 17 21  1  0
 17 22  1  0
 17 23  1  0
 18 19  2  0
 23 24  1  0
 23 25  2  0
M  END

> <chembl_id>
CHEMBL158

> <chembl_pref_name>
AZTREONAM

$$$$

     RDKit          2D

 49 53  0  0  0  0  0  0  0  0999 V2000
    6.2597    0.7013    0.0000 Na  0  0  0  0  0 15  0  0  0  0  0  0
    6.5417   -1.7434    0.0000 C   0  0  0  0  0  0  0  0  0  0  0  0
    6.5417   -0.9184    0.0000 C   0  0  0  0  0  0  0  0  0  0  0  0
    5.7167   -1.7434    0.0000 C   0  0  0  0  0  0  0  0  0  0  0  0
    5.7212   -0.9184    0.0000 N   0  0  0  0  0  0  0  0  0  0  0  0
    5.0129   -0.5043    0.0000 C   0  0  0  0  0  0  0  0  0  0  0  0
    4.2955   -0.9105    0.0000 C   0  0  0  0  0  0  0  0  0  0  0  0
    4.2911   -1.7356    0.0000 C   0  0  0  0  0  0  0  0  0  0  0  0
    5.0039   -2.1543    0.0000 S   0  0  0  0  0  0  0  0  0  0  0  0
    7.1250   -0.3350    0.0000 O   0  0  0  0  0  0  0  0  0  0  0  0
    7.1250   -2.2995    0.0000 N   0  0  0  0  0  0  0  0  0  0  0  0
    7.9167   -2.0670    0.0000 C   0  0  0  0  0  0  0  0  0  0  0  0
    8.5138   -2.6362    0.0000 C   0  0  0  0  0  0  0  0  0  0  0  0
    8.1110   -1.2653    0.0000 O   0  0  0  0  0  0  0  0  0  0  0  0
    8.3194   -3.4381    0.0000 N   0  0  0  0  0  0  0  0  0  0  0  0
    8.9165   -4.0073    0.0000 O   0  0  0  0  0  0  0  0  0  0  0  0
    9.3054   -2.4038    0.0000 C   0  0  0  0  0  0  0  0  0  0  0  0
    9.9600   -2.9046    0.0000 N   0  0  0  0  0  0  0  0  0  0  0  0
   10.6410   -2.4388    0.0000 S   0  0  0  0  0  0  0  0  0  0  0  0
   10.4085   -1.6472    0.0000 C   0  0  0  0  0  0  0  0  0  0  0  0
    9.5838   -1.6238    0.0000 N   0  0  0  0  0  0  0  0  0  0  0  0
   10.9121   -0.9938    0.0000 N   0  0  0  0  0  0  0  0  0  0  0  0
    5.7089   -2.5645    0.0000 H   0  0  0  0  0  0  0  0  0  0  0  0
    5.0185    0.3207    0.0000 C   0  0  0  0  0  0  0  0  0  0  0  0
    5.7358    0.7283    0.0000 O   0  0  0  0  0  0  0  0  0  0  0  0
    4.3069    0.7381    0.0000 O   0  0  0  0  0  0  0  0  0  0  0  0
    3.5839   -0.4931    0.0000 C   0  0  0  0  0  0  0  0  0  0  0  0
    2.8667   -0.9007    0.0000 C   0  0  0  0  0  0  0  0  0  0  0  0
    2.1148   -0.5571    0.0000 C   0  0  0  0  0  0  0  0  0  0  0  0
    1.5585   -1.1663    0.0000 N   0  0  0  0  0  0  0  0  0  0  0  0
    1.9661   -1.8837    0.0000 C   0  0  0  0  0  0  0  0  0  0  0  0
    2.7742   -1.7176    0.0000 C   0  0  0  0  0  0  0  0  0  0  0  0
    1.9500    0.2513    0.0000 O   0  0  0  0  0  0  0  0  0  0  0  0
    0.7387   -1.0745    0.0000 C   0  0  0  0  0  0  0  0  0  0  0  0
    0.3342   -0.3544    0.0000 C   0  0  0  0  0  0  0  0  0  0  0  0
   -0.4740   -0.5205    0.0000 N   0  0  0  0  0  0  0  0  0  0  0  0
   -0.5659   -1.3404    0.0000 C   0  0  0  0  0  0  0  0  0  0  0  0
    0.1855   -1.6810    0.0000 C   0  0  0  0  0  0  0  0  0  0  0  0
   -1.0833    0.0358    0.0000 C   0  0  0  0  0  0  0  0  0  0  0  0
   -0.9062    0.8415    0.0000 O   0  0  0  0  0  0  0  0  0  0  0  0
   -1.8696   -0.2138    0.0000 O   0  0  0  0  0  0  0  0  0  0  0  0
   -2.4790    0.3425    0.0000 C   0  0  0  0  0  0  0  0  0  0  0  0
   -3.2654    0.0929    0.0000 C   0  0  0  0  0  0  0  0  0  0  0  0
   -3.9300    0.5821    0.0000 C   0  0  0  0  0  0  0  0  0  0  0  0
   -4.6008    0.1017    0.0000 O   0  0  0  0  0  0  0  0  0  0  0  0
   -4.3512   -0.6847    0.0000 C   0  0  0  0  0  0  0  0  0  0  0  0
   -3.5262   -0.6902    0.0000 O   0  0  0  0  0  0  0  0  0  0  0  0
   -4.8407   -1.3488    0.0000 O   0  0  0  0  0  0  0  0  0  0  0  0
   -3.9247    1.4071    0.0000 C   0  0  0  0  0  0  0  0  0  0  0  0
  6 24  1  0
 11 12  1  0
 24 25  1  0
  4  5  1  0
 24 26  2  0
 12 13  1  0
  7 27  1  0
 27 28  2  0
 28 29  1  0
 12 14  2  0
  4  9  1  0
 13 15  2  0
  5  6  1  0
 29 30  1  0
 30 31  1  0
 31 32  1  0
 32 28  1  0
 15 16  1  0
 29 33  2  0
  6  7  2  0
 34 30  1  6
 34 35  1  0
 13 17  1  0
 17 18  2  0
  7  8  1  0
  8  9  1  0
 35 36  1  0
 36 37  1  0
 37 38  1  0
 38 34  1  0
  4  2  1  0
 36 39  1  0
  3 10  2  0
 39 40  2  0
 18 19  1  0
 39 41  1  0
 19 20  1  0
 41 42  1  0
 20 21  2  0
 42 43  1  0
 43 44  2  0
 21 17  1  0
  2  3  1  0
 20 22  1  0
  2 11  1  1
 44 45  1  0
 45 46  1  0
 46 47  1  0
 47 43  1  0
  4 23  1  6
 46 48  2  0
  3  5  1  0
 44 49  1  0
M  CHG  2   1   1  25  -1
M  END

> <chembl_id>
CHEMBL4297101

> <chembl_pref_name>
CEFTOBIPROLE MEDOCARIL

$$$$

     RDKit          2D

 36 39  0  0  1  0  0  0  0  0999 V2000
    1.4042   -3.2250    0.0000 N   0  0  0  0  0  0  0  0  0  0  0  0
    0.6875   -3.2250    0.0000 C   0  0  0  0  0  0  0  0  0  0  0  0
    0.6875   -2.4625    0.0000 C   0  0  0  0  0  0  0  0  0  0  0  0
    1.4042   -2.4625    0.0000 C   0  0  0  0  0  0  0  0  0  0  0  0
    5.0375   -3.1625    0.0000 N   0  0  0  0  0  0  0  0  0  0  0  0
    4.4167   -3.5792    0.0000 C   0  0  0  0  0  0  0  0  0  0  0  0
    2.0167   -3.5542    0.0000 C   0  0  0  0  0  0  0  0  0  0  0  0
    5.6667   -2.1167    0.0000 S   0  0  0  0  0  0  0  0  0  0  0  0
    4.6750   -4.2375    0.0000 N   0  0  0  0  0  0  0  0  0  0  0  0
    5.3667   -4.2375    0.0000 N   0  0  0  0  0  0  0  0  0  0  0  0
    5.0375   -2.4750    0.0000 C   0  0  0  0  0  0  0  0  0  0  0  0
    5.6000   -3.5792    0.0000 N   0  0  0  0  0  0  0  0  0  0  0  0
    0.0542   -2.1167    0.0000 N   0  0  0  0  0  0  0  0  0  0  0  0
    2.0167   -2.1167    0.0000 S   0  0  0  0  0  0  0  0  0  0  0  0
    2.6292   -3.1792    0.0000 C   0  0  0  0  0  0  0  0  0  0  0  0
   -0.5708   -2.4792    0.0000 C   0  0  0  0  0  0  0  0  0  0  0  0
    2.0167   -4.2500    0.0000 C   0  0  0  0  0  0  0  0  0  0  0  0
    3.8167   -3.2250    0.0000 S   0  0  0  0  0  0  0  0  0  0  0  0
    2.6292   -2.4750    0.0000 C   0  0  0  0  0  0  0  0  0  0  0  0
   -1.1875   -2.1375    0.0000 C   0  0  0  0  0  0  0  0  0  0  0  0
    6.2667   -2.4542    0.0000 O   0  0  0  0  0  0  0  0  0  0  0  0
    0.1417   -3.6667    0.0000 O   0  0  0  0  0  0  0  0  0  0  0  0
    3.2125   -3.5542    0.0000 C   0  0  0  0  0  0  0  0  0  0  0  0
    6.0167   -1.5000    0.0000 O   0  0  0  0  0  0  0  0  0  0  0  0
    5.3125   -1.5000    0.0000 O   0  0  0  0  0  0  0  0  0  0  0  0
   -0.5708   -3.2250    0.0000 O   0  0  0  0  0  0  0  0  0  0  0  0
    2.6000   -4.6167    0.0000 O   0  0  0  0  0  0  0  0  0  0  0  0
    1.4167   -4.5917    0.0000 O   0  0  0  0  0  0  0  0  0  0  0  0
   -1.8000   -2.4792    0.0000 C   0  0  0  0  0  0  0  0  0  0  0  0
   -1.1875   -1.4292    0.0000 O   0  0  0  0  0  0  0  0  0  0  0  0
   -2.4083   -2.1542    0.0000 C   0  0  0  0  0  0  0  0  0  0  0  0
   -1.8000   -3.1792    0.0000 C   0  0  0  0  0  0  0  0  0  0  0  0
   -2.4083   -3.5417    0.0000 C   0  0  0  0  0  0  0  0  0  0  0  0
   -3.0083   -2.4792    0.0000 C   0  0  0  0  0  0  0  0  0  0  0  0
   -3.0083   -3.1792    0.0000 C   0  0  0  0  0  0  0  0  0  0  0  0
    1.3917   -1.7542    0.0000 H   0  0  0  0  0  0  0  0  0  0  0  0
  2  1  1  0
  3  2  1  0
  4  1  1  0
  5  6  1  0
  6 18  1  0
  7  1  1  0
  8 11  1  0
  9  6  2  0
 10  9  1  0
 11  5  1  0
 12  5  1  0
  3 13  1  1
 14  4  1  0
 15  7  2  0
 16 13  1  0
 17  7  1  0
 18 23  1  0
 19 15  1  0
 20 16  1  0
 21  8  1  0
 22  2  2  0
 23 15  1  0
 24  8  2  0
 25  8  2  0
 26 16  2  0
 27 17  1  0
 28 17  2  0
 29 20  1  0
 20 30  1  1
 31 29  1  0
 32 29  2  0
 33 32  1  0
 34 31  2  0
 35 33  2  0
  4 36  1  6
  4  3  1  0
 14 19  1  0
 12 10  2  0
 34 35  1  0
M  END

> <chembl_id>
CHEMBL1601

> <chembl_pref_name>
CEFONICID

$$$$

     RDKit          2D

 68 73  0  0  0  0  0  0  0  0999 V2000
    6.2338    0.5523    0.0000 C   0  0  0  0  0  0  0  0  0  0  0  0
    5.5193    0.1398    0.0000 C   0  0  0  0  0  0  0  0  0  0  0  0
    5.5193   -0.6852    0.0000 C   0  0  0  0  0  0  0  0  0  0  0  0
    6.2338   -1.0977    0.0000 C   0  0  0  0  0  0  0  0  0  0  0  0
    6.9482   -0.6852    0.0000 C   0  0  0  0  0  0  0  0  0  0  0  0
    6.9482    0.1398    0.0000 C   0  0  0  0  0  0  0  0  0  0  0  0
    7.6833    0.5143    0.0000 C   0  0  0  0  0  0  0  0  0  0  0  0
    8.3752    0.0650    0.0000 N   0  0  0  0  0  0  0  0  0  0  0  0
    9.1103    0.4395    0.0000 C   0  0  0  0  0  0  0  0  0  0  0  0
    9.8022   -0.0098    0.0000 C   0  0  0  0  0  0  0  0  0  0  0  0
   10.5373    0.3648    0.0000 N   0  0  0  0  0  0  0  0  0  0  0  0
   11.2292   -0.0846    0.0000 C   0  0  0  0  0  0  0  0  0  0  0  0
   11.9643    0.2900    0.0000 C   0  0  0  0  0  0  0  0  0  0  0  0
   12.6787    1.5275    0.0000 C   0  0  0  0  0  0  0  0  0  0  0  0
   11.9643    1.1150    0.0000 C   0  0  0  0  0  0  0  0  0  0  0  0
   12.6787   -0.1225    0.0000 C   0  0  0  0  0  0  0  0  0  0  0  0
   13.3932    0.2900    0.0000 C   0  0  0  0  0  0  0  0  0  0  0  0
   13.3932    1.1150    0.0000 C   0  0  0  0  0  0  0  0  0  0  0  0
   -3.8377    1.8770    0.0000 C   0  0  0  0  0  0  0  0  0  0  0  0
   -4.5521    1.4645    0.0000 C   0  0  0  0  0  0  0  0  0  0  0  0
   -4.5521    0.6394    0.0000 C   0  0  0  0  0  0  0  0  0  0  0  0
   -3.8377    0.2269    0.0000 C   0  0  0  0  0  0  0  0  0  0  0  0
   -3.1232    0.6394    0.0000 C   0  0  0  0  0  0  0  0  0  0  0  0
   -3.1232    1.4645    0.0000 C   0  0  0  0  0  0  0  0  0  0  0  0
   -2.4087    0.2269    0.0000 O   0  0  0  0  0  0  0  0  0  0  0  0
   -1.6943    0.6394    0.0000 C   0  0  0  0  0  0  0  0  0  0  0  0
   -0.9798    0.2269    0.0000 C   0  0  0  0  0  0  0  0  0  0  0  0
   -0.9798   -0.5981    0.0000 O   0  0  0  0  0  0  0  0  0  0  0  0
   -0.2653    0.6394    0.0000 N   0  0  0  0  0  0  0  0  0  0  0  0
    0.4492    0.2269    0.0000 C   0  0  0  0  0  0  0  0  0  0  0  0
    1.2460    0.4405    0.0000 C   0  0  0  0  0  0  0  0  0  0  0  0
    1.4596   -0.3564    0.0000 N   0  0  0  0  0  0  0  0  0  0  0  0
    0.6627   -0.5699    0.0000 C   0  0  0  0  0  0  0  0  0  0  0  0
    0.3271   -1.3236    0.0000 O   0  0  0  0  0  0  0  0  0  0  0  0
    1.9380    0.8898    0.0000 S   0  0  0  0  0  0  0  0  0  0  0  0
    2.5791    0.3706    0.0000 C   0  0  0  0  0  0  0  0  0  0  0  0
    2.2834   -0.3996    0.0000 C   0  0  0  0  0  0  0  0  0  0  0  0
    0.9105    1.1941    0.0000 H   0  0  0  0  0  0  0  0  0  0  0  0
    3.1016    1.0090    0.0000 C   0  0  0  0  0  0  0  0  0  0  0  0
    3.3508    0.0790    0.0000 C   0  0  0  0  0  0  0  0  0  0  0  0
    2.7328   -1.0915    0.0000 C   0  0  0  0  0  0  0  0  0  0  0  0
    3.5566   -1.0483    0.0000 O   0  0  0  0  0  0  0  0  0  0  0  0
    2.3582   -1.8266    0.0000 O   0  0  0  0  0  0  0  0  0  0  0  0
   -3.6638   -2.3961    0.0000 C   0  0  0  0  0  0  0  0  0  0  0  0
   -4.3783   -2.8086    0.0000 C   0  0  0  0  0  0  0  0  0  0  0  0
   -4.3783   -3.6336    0.0000 C   0  0  0  0  0  0  0  0  0  0  0  0
   -3.6638   -4.0461    0.0000 C   0  0  0  0  0  0  0  0  0  0  0  0
   -2.9493   -3.6336    0.0000 C   0  0  0  0  0  0  0  0  0  0  0  0
   -2.9493   -2.8086    0.0000 C   0  0  0  0  0  0  0  0  0  0  0  0
   -2.2349   -4.0461    0.0000 O   0  0  0  0  0  0  0  0  0  0  0  0
   -1.5204   -3.6336    0.0000 C   0  0  0  0  0  0  0  0  0  0  0  0
   -0.8059   -4.0461    0.0000 C   0  0  0  0  0  0  0  0  0  0  0  0
   -0.8059   -4.8711    0.0000 O   0  0  0  0  0  0  0  0  0  0  0  0
   -0.0915   -3.6336    0.0000 N   0  0  0  0  0  0  0  0  0  0  0  0
    0.6230   -4.0461    0.0000 C   0  0  0  0  0  0  0  0  0  0  0  0
    1.4199   -3.8326    0.0000 C   0  0  0  0  0  0  0  0  0  0  0  0
    1.6334   -4.6295    0.0000 N   0  0  0  0  0  0  0  0  0  0  0  0
    0.8365   -4.8430    0.0000 C   0  0  0  0  0  0  0  0  0  0  0  0
    0.5010   -5.5967    0.0000 O   0  0  0  0  0  0  0  0  0  0  0  0
    2.1118   -3.3832    0.0000 S   0  0  0  0  0  0  0  0  0  0  0  0
    2.7529   -3.9024    0.0000 C   0  0  0  0  0  0  0  0  0  0  0  0
    2.4573   -4.6726    0.0000 C   0  0  0  0  0  0  0  0  0  0  0  0
    1.0843   -3.0789    0.0000 H   0  0  0  0  0  0  0  0  0  0  0  0
    3.2755   -3.2640    0.0000 C   0  0  0  0  0  0  0  0  0  0  0  0
    3.5247   -4.1941    0.0000 C   0  0  0  0  0  0  0  0  0  0  0  0
    2.9066   -5.3645    0.0000 C   0  0  0  0  0  0  0  0  0  0  0  0
    3.7305   -5.3214    0.0000 O   0  0  0  0  0  0  0  0  0  0  0  0
    2.5321   -6.0996    0.0000 O   0  0  0  0  0  0  0  0  0  0  0  0
  1  2  1  0
  2  3  2  0
  3  4  1  0
  4  5  2  0
  5  6  1  0
  1  6  2  0
  7  8  1  0
  8  9  1  0
  9 10  1  0
 10 11  1  0
 11 12  1  0
 12 13  1  0
  6  7  1  0
 14 15  1  0
 16 17  2  0
 17 18  1  0
 14 18  2  0
 15 13  2  0
 13 16  1  0
 19 20  1  0
 20 21  2  0
 21 22  1  0
 22 23  2  0
 23 24  1  0
 19 24  2  0
 23 25  1  0
 25 26  1  0
 26 27  1  0
 27 28  2  0
 27 29  1  0
 30 29  1  1
 30 31  1  0
 31 32  1  0
 30 33  1  0
 33 32  1  0
 33 34  2  0
 31 35  1  0
 35 36  1  0
 36 37  1  0
 37 32  1  0
 31 38  1  6
 36 39  1  0
 36 40  1  0
 37 41  1  6
 41 42  2  0
 41 43  1  0
 44 45  1  0
 45 46  2  0
 46 47  1  0
 47 48  2  0
 48 49  1  0
 44 49  2  0
 48 50  1  0
 50 51  1  0
 51 52  1  0
 52 53  2  0
 52 54  1  0
 55 54  1  1
 55 56  1  0
 56 57  1  0
 55 58  1  0
 58 57  1  0
 58 59  2  0
 56 60  1  0
 60 61  1  0
 61 62  1  0
 62 57  1  0
 56 63  1  6
 61 64  1  0
 61 65  1  0
 62 66  1  6
 66 67  2  0
 66 68  1  0
M  END

> <chembl_id>
CHEMBL1396177

> <chembl_pref_name>
PENICILLIN V BENZATHINE

$$$$

     RDKit          2D

 28 29  0  0  1  0  0  0  0  0999 V2000
    0.0031   -3.0008    0.0000 S   0  0  0  0  0  0  0  0  0  0  0  0
    1.2990   -0.7500    0.0000 O   0  0  0  0  0  0  0  0  0  0  0  0
    0.0000    2.7000    0.0000 O   0  0  0  0  0  0  0  0  0  0  0  0
   -2.3383    1.3500    0.0000 O   0  0  0  0  0  0  0  0  0  0  0  0
   -2.3383   -1.3500    0.0000 O   0  0  0  0  0  0  0  0  0  0  0  0
    3.8972   -0.4477    0.0000 O   0  0  0  0  0  0  0  0  0  0  0  0
    4.9336    3.1588    0.0000 O   0  0  0  0  0  0  0  0  0  0  0  0
    2.5951    3.0039    0.0000 N   0  0  0  0  0  0  0  0  0  0  0  0
    5.1017    6.1219    0.0000 N   0  0  0  0  0  0  0  0  0  0  0  0
    1.2990    0.7500    0.0000 C   0  0  0  0  0  0  0  0  0  0  0  0
    0.0000    1.5000    0.0000 C   0  0  0  0  0  0  0  0  0  0  0  0
   -1.2990    0.7500    0.0000 C   0  0  0  0  0  0  0  0  0  0  0  0
   -1.2990   -0.7500    0.0000 C   0  0  0  0  0  0  0  0  0  0  0  0
    2.5972    1.5031    0.0000 C   0  0  0  0  0  0  0  0  0  0  0  0
    0.0000   -1.5000    0.0000 C   0  0  0  0  0  0  0  0  0  0  0  0
    3.8968    0.7523    0.0000 C   0  0  0  0  0  0  0  0  0  0  0  0
    3.8933    3.7570    0.0000 C   0  0  0  0  0  0  0  0  0  0  0  0
    3.8912    5.2578    0.0000 C   0  0  0  0  0  0  0  0  0  0  0  0
    4.9360    1.3523    0.0000 C   0  0  0  0  0  0  0  0  0  0  0  0
    2.6746    6.1134    0.0000 C   0  0  0  0  0  0  0  0  0  0  0  0
    3.1332    7.5416    0.0000 C   0  0  0  0  0  0  0  0  0  0  0  0
    4.6332    7.5469    0.0000 C   0  0  0  0  0  0  0  0  0  0  0  0
    1.0432   -3.5993    0.0000 C   0  0  0  0  0  0  0  0  0  0  0  0
    2.2458    8.7488    0.0000 C   0  0  0  0  0  0  0  0  0  0  0  0
    6.2420    5.7483    0.0000 C   0  0  0  0  0  0  0  0  0  0  0  0
    0.7540    8.5846    0.0000 C   0  0  0  0  0  0  0  0  0  0  0  0
    0.0433    9.5515    0.0000 C   0  0  0  0  0  0  0  0  0  0  0  0
    2.1656    0.2509    0.0000 H   0  0  0  0  0  0  0  0  0  0  0  0
 15  1  1  6
  1 23  1  0
 10  2  1  0
  2 15  1  0
 11  3  1  1
 12  4  1  1
 13  5  1  6
 16  6  1  1
 17  7  2  0
 14  8  1  6
  8 17  1  0
  9 18  1  0
 22  9  1  0
  9 25  1  0
 11 10  1  0
 10 14  1  0
 12 11  1  0
 13 12  1  0
 15 13  1  0
 14 16  1  0
 16 19  1  0
 18 17  1  6
 18 20  1  0
 20 21  1  0
 21 22  1  0
 21 24  1  1
 24 26  1  0
 26 27  1  0
 10 28  1  6
M  END

> <chembl_id>
CHEMBL1447

> <chembl_pref_name>
LINCOMYCIN

$$$$

     RDKit          2D

 37 40  0  0  1  0  0  0  0  0999 V2000
    4.4875   -4.2417    0.0000 N   0  0  0  0  0  0  0  0  0  0  0  0
    4.4875   -3.5375    0.0000 C   0  0  0  0  0  0  0  0  0  0  0  0
    0.0875   -3.5375    0.0000 N   0  0  0  0  0  0  0  0  0  0  0  0
    3.7750   -4.2500    0.0000 C   0  0  0  0  0  0  0  0  0  0  0  0
    3.7750   -3.5375    0.0000 C   0  0  0  0  0  0  0  0  0  0  0  0
    0.0917   -4.2417    0.0000 C   0  0  0  0  0  0  0  0  0  0  0  0
    5.1625   -4.4625    0.0000 C   0  0  0  0  0  0  0  0  0  0  0  0
    0.7042   -3.1792    0.0000 C   0  0  0  0  0  0  0  0  0  0  0  0
    5.1542   -3.3167    0.0000 S   0  0  0  0  0  0  0  0  0  0  0  0
    5.5792   -3.8875    0.0000 C   0  0  0  0  0  0  0  0  0  0  0  0
   -0.5250   -4.5917    0.0000 C   0  0  0  0  0  0  0  0  0  0  0  0
    3.1542   -3.1792    0.0000 N   0  0  0  0  0  0  0  0  0  0  0  0
    1.3167   -3.5375    0.0000 N   0  0  0  0  0  0  0  0  0  0  0  0
    2.5417   -3.5375    0.0000 C   0  0  0  0  0  0  0  0  0  0  0  0
   -1.1375   -4.2375    0.0000 N   0  0  0  0  0  0  0  0  0  0  0  0
    1.9292   -3.1792    0.0000 C   0  0  0  0  0  0  0  0  0  0  0  0
    5.1542   -5.1667    0.0000 C   0  0  0  0  0  0  0  0  0  0  0  0
   -0.5208   -3.1792    0.0000 C   0  0  0  0  0  0  0  0  0  0  0  0
    3.2750   -4.7500    0.0000 O   0  0  0  0  0  0  0  0  0  0  0  0
    0.7042   -4.5917    0.0000 O   0  0  0  0  0  0  0  0  0  0  0  0
    0.7042   -2.4750    0.0000 O   0  0  0  0  0  0  0  0  0  0  0  0
   -1.1333   -3.5292    0.0000 C   0  0  0  0  0  0  0  0  0  0  0  0
   -0.5250   -5.3000    0.0000 O   0  0  0  0  0  0  0  0  0  0  0  0
    2.5417   -4.2417    0.0000 O   0  0  0  0  0  0  0  0  0  0  0  0
    5.7667   -5.5292    0.0000 O   0  0  0  0  0  0  0  0  0  0  0  0
    4.5375   -5.5167    0.0000 O   0  0  0  0  0  0  0  0  0  0  0  0
    1.9292   -2.4750    0.0000 C   0  0  0  0  0  0  0  0  0  0  0  0
    6.1917   -4.2417    0.0000 C   0  0  0  0  0  0  0  0  0  0  0  0
    6.1917   -3.5292    0.0000 C   0  0  0  0  0  0  0  0  0  0  0  0
   -1.7500   -4.5875    0.0000 C   0  0  0  0  0  0  0  0  0  0  0  0
    2.5417   -2.1167    0.0000 C   0  0  0  0  0  0  0  0  0  0  0  0
    1.3167   -2.1250    0.0000 C   0  0  0  0  0  0  0  0  0  0  0  0
   -2.3625   -4.2292    0.0000 C   0  0  0  0  0  0  0  0  0  0  0  0
    2.5417   -1.4125    0.0000 C   0  0  0  0  0  0  0  0  0  0  0  0
    1.3167   -1.4167    0.0000 C   0  0  0  0  0  0  0  0  0  0  0  0
    1.9292   -1.0542    0.0000 C   0  0  0  0  0  0  0  0  0  0  0  0
    4.4792   -2.8292    0.0000 H   0  0  0  0  0  0  0  0  0  0  0  0
  2  1  1  0
  3  8  1  0
  4  1  1  0
  5  4  1  0
  6  3  1  0
  7  1  1  0
  8 13  1  0
  9  2  1  0
 10  7  1  0
 11  6  1  0
  5 12  1  1
 13 16  1  0
 14 12  1  0
 15 22  1  0
 16 14  1  0
  7 17  1  6
 18  3  1  0
 19  4  2  0
 20  6  2  0
 21  8  2  0
 22 18  1  0
 23 11  2  0
 24 14  2  0
 25 17  1  0
 26 17  2  0
 16 27  1  6
 28 10  1  0
 29 10  1  0
 30 15  1  0
 31 27  2  0
 32 27  1  0
 33 30  1  0
 34 31  1  0
 35 32  2  0
 36 34  2  0
  2 37  1  6
  9 10  1  0
  5  2  1  0
 36 35  1  0
 15 11  1  0
M  END

> <chembl_id>
CHEMBL702

> <chembl_pref_name>
PIPERACILLIN

$$$$

     RDKit          2D

 28 31  0  0  0  0  0  0  0  0999 V2000
    1.5167   -6.0000    0.0000 C   0  0  0  0  0  0  0  0  0  0  0  0
    1.5167   -5.2875    0.0000 C   0  0  0  0  0  0  0  0  0  0  0  0
    2.7458   -5.2875    0.0000 C   0  0  0  0  0  0  0  0  0  0  0  0
    2.1292   -6.3542    0.0000 N   0  0  0  0  0  0  0  0  0  0  0  0
    0.9042   -6.3542    0.0000 N   0  0  0  0  0  0  0  0  0  0  0  0
   -0.3208   -6.3542    0.0000 N   0  0  0  0  0  0  0  0  0  0  0  0
    2.1292   -4.9292    0.0000 C   0  0  0  0  0  0  0  0  0  0  0  0
    0.2917   -6.0000    0.0000 C   0  0  0  0  0  0  0  0  0  0  0  0
    2.7458   -6.0000    0.0000 C   0  0  0  0  0  0  0  0  0  0  0  0
   -1.4708   -6.3542    0.0000 C   0  0  0  0  0  0  0  0  0  0  0  0
    0.9042   -4.9333    0.0000 C   0  0  0  0  0  0  0  0  0  0  0  0
    2.1292   -7.0583    0.0000 C   0  0  0  0  0  0  0  0  0  0  0  0
   -1.2500   -7.0250    0.0000 C   0  0  0  0  0  0  0  0  0  0  0  0
    3.3583   -4.9333    0.0000 C   0  0  0  0  0  0  0  0  0  0  0  0
    0.2917   -5.2875    0.0000 C   0  0  0  0  0  0  0  0  0  0  0  0
   -0.8958   -5.9333    0.0000 C   0  0  0  0  0  0  0  0  0  0  0  0
   -0.5417   -7.0250    0.0000 C   0  0  0  0  0  0  0  0  0  0  0  0
    1.7708   -7.6708    0.0000 C   0  0  0  0  0  0  0  0  0  0  0  0
    2.4792   -7.6708    0.0000 C   0  0  0  0  0  0  0  0  0  0  0  0
   -2.0875   -6.0000    0.0000 N   0  0  0  0  0  0  0  0  0  0  0  0
    2.1292   -4.2208    0.0000 O   0  0  0  0  0  0  0  0  0  0  0  0
    3.3625   -4.2250    0.0000 O   0  0  0  0  0  0  0  0  0  0  0  0
   -0.3208   -4.9333    0.0000 F   0  0  0  0  0  0  0  0  0  0  0  0
    3.9708   -5.2875    0.0000 O   0  0  0  0  0  0  0  0  0  0  0  0
   -1.8708   -7.3750    0.0000 C   0  0  0  0  0  0  0  0  0  0  0  0
   -2.0917   -5.2917    0.0000 O   0  0  0  0  0  0  0  0  0  0  0  0
   -2.4792   -7.0125    0.0000 N   0  0  0  0  0  0  0  0  0  0  0  0
   -2.7042   -4.9375    0.0000 C   0  0  0  0  0  0  0  0  0  0  0  0
  2  1  1  0
  3  9  2  0
  4  1  1  0
  5  1  2  0
  6  8  1  0
  7  2  1  0
  8  5  1  0
  9  4  1  0
 10 16  1  0
 11  2  2  0
 12  4  1  0
 13 17  1  0
 14  3  1  0
 15  8  2  0
 16  6  1  0
 17  6  1  0
 18 12  1  0
 19 12  1  0
 20 10  2  0
 21  7  2  0
 22 14  2  0
 23 15  1  0
 24 14  1  0
 25 13  1  0
 26 20  1  0
 27 25  1  0
 28 26  1  0
  7  3  1  0
 15 11  1  0
 18 19  1  0
 13 10  1  0
M  END

> <chembl_id>
CHEMBL430

> <chembl_pref_name>
GEMIFLOXACIN

$$$$

     RDKit          2D

  8  8  0  0  1  0  0  0  0  0999 V2000
    2.2488   -1.1313    0.0000 P   0  0  0  0  0  0  0  0  0  0  0  0
    1.1313    0.0000    0.0000 O   0  0  0  0  0  0  0  0  0  0  0  0
    2.6674   -0.4152    0.0000 O   0  0  0  0  0  0  0  0  0  0  0  0
    2.9650   -1.5361    0.0000 O   0  0  0  0  0  0  0  0  0  0  0  0
    1.8440   -1.8440    0.0000 O   0  0  0  0  0  0  0  0  0  0  0  0
    1.5361   -0.7127    0.0000 C   0  0  0  0  0  0  0  0  0  0  0  0
    0.7127   -0.7127    0.0000 C   0  0  0  0  0  0  0  0  0  0  0  0
    0.0000   -1.1313    0.0000 C   0  0  0  0  0  0  0  0  0  0  0  0
  1  3  1  0
  1  4  1  0
  1  5  2  0
  6  1  1  6
  2  6  1  0
  2  7  1  0
  6  7  1  0
  7  8  1  6
M  END

> <chembl_id>
CHEMBL1757

> <chembl_pref_name>
FOSFOMYCIN

$$$$

     RDKit          2D

 30 33  0  0  1  0  0  0  0  0999 V2000
    1.9794   -4.6501    0.0000 Cl  0  0  0  0  0  0  0  0  0  0  0  0
    5.1654    1.5080    0.0000 S   0  0  0  0  0  0  0  0  0  0  0  0
    1.5390   -1.5231    0.0000 O   0  0  0  0  0  0  0  0  0  0  0  0
    1.5488    4.0085    0.0000 O   0  0  0  0  0  0  0  0  0  0  0  0
    0.4897    2.2203    0.0000 O   0  0  0  0  0  0  0  0  0  0  0  0
    2.8956   -3.8695    0.0000 O   0  0  0  0  0  0  0  0  0  0  0  0
    6.7069   -6.6845    0.0000 O   0  0  0  0  0  0  0  0  0  0  0  0
    2.9467    0.5893    0.0000 N   0  0  0  0  0  0  0  0  0  0  0  0
    4.8152   -2.5250    0.0000 N   0  0  0  0  0  0  0  0  0  0  0  0
    5.4268   -7.4664    0.0000 N   0  0  0  0  0  0  0  0  0  0  0  0
    4.4028    0.2427    0.0000 C   0  0  0  0  0  0  0  0  0  0  0  0
    4.0387   -1.2480    0.0000 C   0  0  0  0  0  0  0  0  0  0  0  0
    2.8254    2.0454    0.0000 C   0  0  0  0  0  0  0  0  0  0  0  0
    2.5654   -0.9014    0.0000 C   0  0  0  0  0  0  0  0  0  0  0  0
    4.1948    2.6347    0.0000 C   0  0  0  0  0  0  0  0  0  0  0  0
    1.5357    2.8086    0.0000 C   0  0  0  0  0  0  0  0  0  0  0  0
    3.3050    3.4400    0.0000 C   0  0  0  0  0  0  0  0  0  0  0  0
    5.3472    2.9693    0.0000 C   0  0  0  0  0  0  0  0  0  0  0  0
    4.0953   -3.8419    0.0000 C   0  0  0  0  0  0  0  0  0  0  0  0
    4.8750   -5.1243    0.0000 C   0  0  0  0  0  0  0  0  0  0  0  0
    4.2876   -6.4906    0.0000 C   0  0  0  0  0  0  0  0  0  0  0  0
    6.3588   -5.2255    0.0000 C   0  0  0  0  0  0  0  0  0  0  0  0
    2.8258   -6.8301    0.0000 C   0  0  0  0  0  0  0  0  0  0  0  0
    1.7220   -5.8221    0.0000 C   0  0  0  0  0  0  0  0  0  0  0  0
    7.1341   -4.3095    0.0000 C   0  0  0  0  0  0  0  0  0  0  0  0
    2.5089   -8.2982    0.0000 C   0  0  0  0  0  0  0  0  0  0  0  0
    0.2925   -6.2764    0.0000 C   0  0  0  0  0  0  0  0  0  0  0  0
    1.0794   -8.7525    0.0000 C   0  0  0  0  0  0  0  0  0  0  0  0
   -0.0288   -7.7416    0.0000 C   0  0  0  0  0  0  0  0  0  0  0  0
    5.3273   -0.1384    0.0000 H   0  0  0  0  0  0  0  0  0  0  0  0
  1 24  1  0
 11  2  1  0
 15  2  1  0
 14  3  2  0
 16  4  1  0
 16  5  2  0
 19  6  2  0
  7 10  1  0
 22  7  1  0
 11  8  1  0
  8 13  1  0
 14  8  1  0
 12  9  1  6
 19  9  1  0
 10 21  2  0
 11 12  1  0
 12 14  1  0
 13 15  1  0
 13 16  1  1
 15 17  1  0
 15 18  1  0
 20 19  1  0
 21 20  1  0
 20 22  2  0
 23 21  1  0
 22 25  1  0
 23 24  2  0
 26 23  1  0
 24 27  1  0
 28 26  2  0
 27 29  2  0
 29 28  1  0
 11 30  1  1
M  END

> <chembl_id>
CHEMBL891

> <chembl_pref_name>
CLOXACILLIN

$$$$

     RDKit          2D

 59 62  0  0  1  0  0  0  0  0999 V2000
   24.9294  -15.5785    0.0000 C   0  0  0  0  0  0  0  0  0  0  0  0
   25.6438  -15.1660    0.0000 C   0  0  0  0  0  0  0  0  0  0  0  0
   24.9294  -13.9285    0.0000 C   0  0  0  0  0  0  0  0  0  0  0  0
   24.2149  -14.3410    0.0000 C   0  0  0  0  0  0  0  0  0  0  0  0
   24.2149  -15.1660    0.0000 C   0  0  0  0  0  0  0  0  0  0  0  0
   27.0728  -14.3409    0.0000 C   0  0  0  0  0  0  0  0  0  0  0  0
   27.0728  -15.1659    0.0000 C   0  0  0  0  0  0  0  0  0  0  0  0
   26.3583  -15.5785    0.0000 C   0  0  0  0  0  0  0  0  0  0  0  0
   24.9294  -13.1034    0.0000 O   0  0  0  0  0  0  0  0  0  0  0  0
   25.6438  -12.6909    0.0000 C   0  0  0  0  0  0  0  0  0  0  0  0
   26.3583  -13.1034    0.0000 C   0  0  0  0  0  0  0  0  0  0  0  0
   27.0728  -12.6909    0.0000 C   0  0  0  0  0  0  0  0  0  0  0  0
   27.7872  -13.1034    0.0000 C   0  0  0  0  0  0  0  0  0  0  0  0
   27.7873  -13.9284    0.0000 C   0  0  0  0  0  0  0  0  0  0  0  0
   23.5004  -13.9285    0.0000 C   0  0  0  0  0  0  0  0  0  0  0  0
   23.5004  -15.5785    0.0000 O   0  0  0  0  0  0  0  0  0  0  0  0
   22.7859  -15.1660    0.0000 C   0  0  0  0  0  0  0  0  0  0  0  0
   22.0715  -15.5785    0.0000 C   0  0  0  0  0  0  0  0  0  0  0  0
   22.7859  -14.3410    0.0000 O   0  0  0  0  0  0  0  0  0  0  0  0
   24.9294  -16.4035    0.0000 C   0  0  0  0  0  0  0  0  0  0  0  0
   25.6438  -14.3410    0.0000 O   0  0  0  0  0  0  0  0  0  0  0  0
   24.9707  -14.9213    0.0000 C   0  0  0  0  0  0  0  0  0  0  0  0
   25.6438  -11.8659    0.0000 O   0  0  0  0  0  0  0  0  0  0  0  0
   25.7749  -13.6868    0.0000 C   0  0  0  0  0  0  0  0  0  0  0  0
   26.6603  -13.6265    0.0000 C   0  0  0  0  0  0  0  0  0  0  0  0
   28.5018  -14.3408    0.0000 O   0  0  0  0  0  0  0  0  0  0  0  0
   28.5018  -15.1658    0.0000 C   0  0  0  0  0  0  0  0  0  0  0  0
   27.7873  -15.5784    0.0000 O   0  0  0  0  0  0  0  0  0  0  0  0
   27.7873  -16.4034    0.0000 C   0  0  0  0  0  0  0  0  0  0  0  0
   28.5018  -16.8159    0.0000 C   0  0  0  0  0  0  0  0  0  0  0  0
   29.2162  -16.4034    0.0000 C   0  0  0  0  0  0  0  0  0  0  0  0
   29.2162  -15.5784    0.0000 C   0  0  0  0  0  0  0  0  0  0  0  0
   27.0728  -16.8159    0.0000 C   0  0  0  0  0  0  0  0  0  0  0  0
   29.9307  -16.8159    0.0000 N   0  0  0  0  0  0  0  0  0  0  0  0
   30.6452  -16.4034    0.0000 C   0  0  0  0  0  0  0  0  0  0  0  0
   29.9307  -17.6409    0.0000 C   0  0  0  0  0  0  0  0  0  0  0  0
   25.9458  -16.2930    0.0000 C   0  0  0  0  0  0  0  0  0  0  0  0
   26.7708  -16.2930    0.0000 O   0  0  0  0  0  0  0  0  0  0  0  0
   29.9307  -15.1659    0.0000 O   0  0  0  0  0  0  0  0  0  0  0  0
   29.0851  -14.5825    0.0000 H   0  0  0  0  0  0  0  0  0  0  0  0
   29.9307  -14.3409    0.0000 C   0  0  0  0  0  0  0  0  0  0  0  0
   30.6452  -13.9284    0.0000 C   0  0  0  0  0  0  0  0  0  0  0  0
   29.2162  -13.9284    0.0000 O   0  0  0  0  0  0  0  0  0  0  0  0
   28.5017  -12.6909    0.0000 C   0  0  0  0  0  0  0  0  0  0  0  0
   27.0727  -11.8659    0.0000 O   0  0  0  0  0  0  0  0  0  0  0  0
   27.7872  -11.4534    0.0000 C   0  0  0  0  0  0  0  0  0  0  0  0
   28.5017  -11.8658    0.0000 C   0  0  0  0  0  0  0  0  0  0  0  0
   29.2161  -11.4533    0.0000 C   0  0  0  0  0  0  0  0  0  0  0  0
   29.2161  -10.6283    0.0000 C   0  0  0  0  0  0  0  0  0  0  0  0
   28.5016  -10.2158    0.0000 C   0  0  0  0  0  0  0  0  0  0  0  0
   27.7872  -10.6284    0.0000 O   0  0  0  0  0  0  0  0  0  0  0  0
   28.5016   -9.3908    0.0000 C   0  0  0  0  0  0  0  0  0  0  0  0
   29.9306  -10.2158    0.0000 O   0  0  0  0  0  0  0  0  0  0  0  0
   29.9306   -9.3908    0.0000 C   0  0  0  0  0  0  0  0  0  0  0  0
   30.6451   -8.9783    0.0000 C   0  0  0  0  0  0  0  0  0  0  0  0
   29.2161   -8.9783    0.0000 O   0  0  0  0  0  0  0  0  0  0  0  0
   29.9306  -11.8658    0.0000 O   0  0  0  0  0  0  0  0  0  0  0  0
   30.6451  -11.4533    0.0000 C   0  0  0  0  0  0  0  0  0  0  0  0
   27.0727  -11.0409    0.0000 H   0  0  0  0  0  0  0  0  0  0  0  0
  1  2  1  0
  3  4  1  0
  4  5  1  0
  5  1  1  0
  8  2  1  0
  6  7  1  0
  7  8  1  0
  3  9  1  0
  9 10  1  0
 10 11  1  0
 11 12  1  0
 14  6  1  0
 12 13  1  0
 13 14  1  0
  4 15  1  1
  5 16  1  1
 16 17  1  0
 17 18  1  0
 17 19  2  0
  1 20  1  6
  2 21  2  0
  3 22  1  6
 10 23  2  0
 11 24  1  1
  6 25  1  6
 14 26  1  1
 26 27  1  0
 27 28  1  0
 32 27  1  0
 28 29  1  0
 29 30  1  0
 30 31  1  0
 31 32  1  0
 29 33  1  1
 31 34  1  1
 34 35  1  0
 34 36  1  0
  8 37  1  0
  8 38  1  6
 37 38  1  0
 32 39  1  6
 27 40  1  6
 39 41  1  0
 41 42  1  0
 41 43  2  0
 13 44  1  6
 12 45  1  1
 45 46  1  0
 46 47  1  0
 51 46  1  0
 47 48  1  0
 48 49  1  0
 49 50  1  0
 50 51  1  0
 50 52  1  1
 49 53  1  6
 53 54  1  0
 54 55  1  0
 54 56  2  0
 48 57  1  1
 57 58  1  0
 46 59  1  1
M  END

> <chembl_id>
CHEMBL564085

> <chembl_pref_name>
TROLEANDOMYCIN

$$$$

     RDKit          2D

 37 40  0  0  1  0  0  0  0  0999 V2000
    0.2000    0.6583    0.0000 C   0  0  0  0  0  0  0  0  0  0  0  0
   -1.3208    0.6250    0.0000 C   0  0  0  0  0  0  0  0  0  0  0  0
    1.7167    0.6583    0.0000 C   0  0  0  0  0  0  0  0  0  0  0  0
   -0.5458    1.0708    0.0000 C   0  0  0  0  0  0  0  0  0  0  0  0
    0.9750    1.0958    0.0000 C   0  0  0  0  0  0  0  0  0  0  0  0
   -2.0708    1.0708    0.0000 C   0  0  0  0  0  0  0  0  0  0  0  0
    0.2000   -0.2875    0.0000 C   0  0  0  0  0  0  0  0  0  0  0  0
   -2.8208   -0.2542    0.0000 C   0  0  0  0  0  0  0  0  0  0  0  0
   -2.8208    0.6250    0.0000 C   0  0  0  0  0  0  0  0  0  0  0  0
    1.7167   -0.3167    0.0000 C   0  0  0  0  0  0  0  0  0  0  0  0
   -2.0708   -0.7042    0.0000 C   0  0  0  0  0  0  0  0  0  0  0  0
   -1.3208   -0.2875    0.0000 C   0  0  0  0  0  0  0  0  0  0  0  0
    0.9750   -0.7292    0.0000 C   0  0  0  0  0  0  0  0  0  0  0  0
   -0.5458   -0.7292    0.0000 C   0  0  0  0  0  0  0  0  0  0  0  0
    2.5417    1.0250    0.0000 C   0  0  0  0  0  0  0  0  0  0  0  0
   -3.5958   -0.7042    0.0000 C   0  0  0  0  0  0  0  0  0  0  0  0
   -3.5958    1.0708    0.0000 C   0  0  0  0  0  0  0  0  0  0  0  0
    0.9542    2.0833    0.0000 O   0  0  0  0  0  0  0  0  0  0  0  0
   -2.0708    1.9708    0.0000 O   0  0  0  0  0  0  0  0  0  0  0  0
    1.7042   -1.5917    0.0000 N   0  0  0  0  0  0  0  0  0  0  0  0
    2.6917    2.0833    0.0000 N   0  0  0  0  0  0  0  0  0  0  0  0
    0.1792    1.7083    0.0000 O   0  0  0  0  0  0  0  0  0  0  0  0
    3.1917    0.3750    0.0000 O   0  0  0  0  0  0  0  0  0  0  0  0
   -0.5458    2.2750    0.0000 O   0  0  0  0  0  0  0  0  0  0  0  0
    2.4167   -0.8292    0.0000 O   0  0  0  0  0  0  0  0  0  0  0  0
   -2.4750   -1.4917    0.0000 O   0  0  0  0  0  0  0  0  0  0  0  0
   -4.3458   -0.2875    0.0000 C   0  0  0  0  0  0  0  0  0  0  0  0
   -4.3458    0.6250    0.0000 C   0  0  0  0  0  0  0  0  0  0  0  0
    3.8417    2.0833    0.0000 C   0  0  0  0  0  0  0  0  0  0  0  0
   -1.5750   -1.6750    0.0000 C   0  0  0  0  0  0  0  0  0  0  0  0
   -3.5833   -1.6417    0.0000 Cl  0  0  0  0  0  0  0  0  0  0  0  0
   -3.5833    2.0250    0.0000 O   0  0  0  0  0  0  0  0  0  0  0  0
    4.2750    1.2958    0.0000 O   0  0  0  0  0  0  0  0  0  0  0  0
    1.4042   -2.3792    0.0000 C   0  0  0  0  0  0  0  0  0  0  0  0
    2.6917   -1.8917    0.0000 C   0  0  0  0  0  0  0  0  0  0  0  0
   -1.3262   -1.2875    0.0000 H   0  0  0  0  0  0  0  0  0  0  0  0
    0.2083   -1.2875    0.0000 H   0  0  0  0  0  0  0  0  0  0  0  0
  2  4  2  0
  3  5  1  0
  4  1  1  0
  5  1  1  0
  6  2  1  0
  7  1  1  0
  8 11  1  0
  9  6  1  0
 10 13  1  0
 11 12  1  0
 12 14  1  0
 13  7  1  0
 14  7  1  0
 15  3  1  0
 16  8  1  0
 17  9  1  0
 18  5  2  0
 19  6  2  0
 13 20  1  1
 21 15  1  0
  1 22  1  1
 23 15  2  0
 24  4  1  0
 25 10  1  0
 11 26  1  6
 27 16  2  0
 28 17  2  0
 29 21  1  0
 11 30  1  0
 31 16  1  0
 32 17  1  0
 33 29  1  0
 34 20  1  0
 35 20  1  0
  2 12  1  0
  3 10  2  0
  8  9  2  0
 27 28  1  0
 12 36  1  1
  7 37  1  1
M  END

> <chembl_id>
CHEMBL2106071

> <chembl_pref_name>
CLOMOCYCLINE

$$$$

     RDKit          2D

 45 48  0  0  0  0  0  0  0  0999 V2000
   16.8989    0.1325    0.0000 C   0  0  0  0  0  0  0  0  0  0  0  0
   15.8625   -0.1233    0.0000 N   0  0  0  0  0  0  0  0  0  0  0  0
   16.5355   -0.5001    0.0000 C   0  0  0  0  0  0  0  0  0  0  0  0
   16.2259    0.5228    0.0000 C   0  0  0  0  0  0  0  0  0  0  0  0
   20.2773    1.3439    0.0000 N   0  0  0  0  0  0  0  0  0  0  0  0
   19.5281    1.5188    0.0000 C   0  0  0  0  0  0  0  0  0  0  0  0
   20.7260    0.5048    0.0000 C   0  0  0  0  0  0  0  0  0  0  0  0
   17.5046   -0.4867    0.0000 N   0  0  0  0  0  0  0  0  0  0  0  0
   13.6955    1.6534    0.0000 C   0  0  0  0  0  0  0  0  0  0  0  0
   15.0818   -0.1367    0.0000 C   0  0  0  0  0  0  0  0  0  0  0  0
   13.2782    2.4610    0.0000 N   0  0  0  0  0  0  0  0  0  0  0  0
   14.5614    1.4919    0.0000 N   0  0  0  0  0  0  0  0  0  0  0  0
   19.2409    2.3084    0.0000 C   0  0  0  0  0  0  0  0  0  0  0  0
   14.8710    2.7661    0.0000 N   0  0  0  0  0  0  0  0  0  0  0  0
   13.8570    3.1744    0.0000 N   0  0  0  0  0  0  0  0  0  0  0  0
   18.4468   -0.0290    0.0000 C   0  0  0  0  0  0  0  0  0  0  0  0
   20.1069   -0.2758    0.0000 N   0  0  0  0  0  0  0  0  0  0  0  0
   19.1647   -0.7155    0.0000 C   0  0  0  0  0  0  0  0  0  0  0  0
   15.7055    1.1689    0.0000 S   0  0  0  0  0  0  0  0  0  0  0  0
   14.6915    0.5048    0.0000 C   0  0  0  0  0  0  0  0  0  0  0  0
   19.7120    2.8603    0.0000 N   0  0  0  0  0  0  0  0  0  0  0  0
   14.6915   -0.8546    0.0000 C   0  0  0  0  0  0  0  0  0  0  0  0
   20.7529    2.0123    0.0000 C   0  0  0  0  0  0  0  0  0  0  0  0
   13.2154    1.0028    0.0000 S   0  0  0  0  0  0  0  0  0  0  0  0
   14.9607    1.0747    0.0000 C   0  0  0  0  0  0  0  0  0  0  0  0
   16.1317   -1.2000    0.0000 O   0  0  0  0  0  0  0  0  0  0  0  0
   13.8301    0.2536    0.0000 C   0  0  0  0  0  0  0  0  0  0  0  0
   19.0705    0.9355    0.0000 O   0  0  0  0  0  0  0  0  0  0  0  0
   21.5560    0.3344    0.0000 O   0  0  0  0  0  0  0  0  0  0  0  0
   17.5450    1.3708    0.0000 O   0  0  0  0  0  0  0  0  0  0  0  0
   20.4972    2.7437    0.0000 C   0  0  0  0  0  0  0  0  0  0  0  0
   18.4602    2.4072    0.0000 O   0  0  0  0  0  0  0  0  0  0  0  0
   18.3391    0.9804    0.0000 O   0  0  0  0  0  0  0  0  0  0  0  0
   13.6820   -0.6931    0.0000 O   0  0  0  0  0  0  0  0  0  0  0  0
   19.0390   -1.6353    0.0000 C   0  0  0  0  0  0  0  0  0  0  0  0
   12.3091    2.6988    0.0000 C   0  0  0  0  0  0  0  0  0  0  0  0
   15.1760   -1.4558    0.0000 O   0  0  0  0  0  0  0  0  0  0  0  0
   19.2140    3.8878    0.0000 C   0  0  0  0  0  0  0  0  0  0  0  0
   19.8331   -2.1018    0.0000 O   0  0  0  0  0  0  0  0  0  0  0  0
   17.2892    2.0931    0.0000 C   0  0  0  0  0  0  0  0  0  0  0  0
   18.0340   -1.3481    0.0000 C   0  0  0  0  0  0  0  0  0  0  0  0
   18.4199    4.0313    0.0000 C   0  0  0  0  0  0  0  0  0  0  0  0
   16.4009    1.5143    0.0000 H   0  0  0  0  0  0  0  0  0  0  0  0
   20.1293   -1.3661    0.0000 H   0  0  0  0  0  0  0  0  0  0  0  0
   18.4468   -2.3576    0.0000 H   0  0  0  0  0  0  0  0  0  0  0  0
  2  4  1  0
  3  1  1  0
  4  1  1  0
  5  7  1  0
  6  5  1  0
  7 17  1  0
  1  8  1  6
  9 24  1  0
 10  2  1  0
 11  9  1  0
 12  9  2  0
 13  6  1  0
 14 12  1  0
 15 11  1  0
 16  8  1  0
 17 18  1  0
 18 16  1  0
 19  4  1  0
 20 25  1  0
 21 31  1  0
 22 10  1  0
 23  5  1  0
 24 27  1  0
 25 19  1  0
 26  3  2  0
 27 20  1  0
 28  6  2  0
 29  7  2  0
  1 30  1  1
 31 23  1  0
 32 13  2  0
 33 16  2  0
 34 22  2  0
 35 18  1  0
 36 11  1  0
 37 22  1  0
 38 21  1  0
 35 39  1  1
 40 30  1  0
 41 35  1  0
 42 38  1  0
  4 43  1  1
 18 44  1  1
 35 45  1  6
  3  2  1  0
 20 10  2  0
 13 21  1  0
 15 14  2  0
M  END

> <chembl_id>
CHEMBL1908372

> <chembl_pref_name>
CEFBUPERAZONE

$$$$

     RDKit          2D

 69 75  0  0  0  0  0  0  0  0999 V2000
   -2.1208   -0.2375    0.0000 C   0  0  0  0  0  0  0  0  0  0  0  0
   -2.8708   -0.2375    0.0000 C   0  0  0  0  0  0  0  0  0  0  0  0
   -1.3875   -0.2375    0.0000 C   0  0  0  0  0  0  0  0  0  0  0  0
   -2.4958   -0.4500    0.0000 C   0  0  0  0  0  0  0  0  0  0  0  0
   -1.7583   -0.4542    0.0000 C   0  0  0  0  0  0  0  0  0  0  0  0
   -2.1208    0.1833    0.0000 C   0  0  0  0  0  0  0  0  0  0  0  0
   -1.3875    0.1875    0.0000 C   0  0  0  0  0  0  0  0  0  0  0  0
   -3.2458   -0.4500    0.0000 C   0  0  0  0  0  0  0  0  0  0  0  0
   -2.8708    0.1833    0.0000 C   0  0  0  0  0  0  0  0  0  0  0  0
   -3.6083   -0.2375    0.0000 C   0  0  0  0  0  0  0  0  0  0  0  0
   -3.2458    0.3958    0.0000 C   0  0  0  0  0  0  0  0  0  0  0  0
   -3.6083    0.1833    0.0000 C   0  0  0  0  0  0  0  0  0  0  0  0
   -1.7583    0.4000    0.0000 C   0  0  0  0  0  0  0  0  0  0  0  0
   -1.0208   -0.4500    0.0000 C   0  0  0  0  0  0  0  0  0  0  0  0
   -2.4958    0.3958    0.0000 C   0  0  0  0  0  0  0  0  0  0  0  0
   -1.0333   -0.8792    0.0000 N   0  0  0  0  0  0  0  0  0  0  0  0
   -0.2958   -0.9000    0.0000 N   0  0  0  0  0  0  0  0  0  0  0  0
    0.4417   -0.4917    0.0000 N   0  0  0  0  0  0  0  0  0  0  0  0
   -0.6708   -1.0917    0.0000 C   0  0  0  0  0  0  0  0  0  0  0  0
   -1.7583   -0.8792    0.0000 O   0  0  0  0  0  0  0  0  0  0  0  0
   -3.2583   -0.8792    0.0000 O   0  0  0  0  0  0  0  0  0  0  0  0
   -1.7583    0.8208    0.0000 N   0  0  0  0  0  0  0  0  0  0  0  0
   -3.9833   -0.4500    0.0000 C   0  0  0  0  0  0  0  0  0  0  0  0
   -2.1375   -0.7167    0.0000 O   0  0  0  0  0  0  0  0  0  0  0  0
   -0.6625   -0.2375    0.0000 O   0  0  0  0  0  0  0  0  0  0  0  0
   -2.4833   -0.8792    0.0000 O   0  0  0  0  0  0  0  0  0  0  0  0
   -1.0333    0.4000    0.0000 O   0  0  0  0  0  0  0  0  0  0  0  0
   -3.4708    0.8083    0.0000 O   0  0  0  0  0  0  0  0  0  0  0  0
    0.0625   -1.1167    0.0000 C   0  0  0  0  0  0  0  0  0  0  0  0
   -0.2958   -0.4750    0.0000 C   0  0  0  0  0  0  0  0  0  0  0  0
    0.4375   -0.9167    0.0000 C   0  0  0  0  0  0  0  0  0  0  0  0
    0.0750   -0.2625    0.0000 C   0  0  0  0  0  0  0  0  0  0  0  0
   -3.9833    0.3958    0.0000 C   0  0  0  0  0  0  0  0  0  0  0  0
   -2.9958    0.7875    0.0000 C   0  0  0  0  0  0  0  0  0  0  0  0
   -3.9958   -0.8792    0.0000 O   0  0  0  0  0  0  0  0  0  0  0  0
    0.8167   -0.2875    0.0000 C   0  0  0  0  0  0  0  0  0  0  0  0
    1.5417   -0.3000    0.0000 O   0  0  0  0  0  0  0  0  0  0  0  0
   -4.3458    0.1833    0.0000 C   0  0  0  0  0  0  0  0  0  0  0  0
   -4.3458   -0.2375    0.0000 C   0  0  0  0  0  0  0  0  0  0  0  0
   -2.1208    1.0333    0.0000 C   0  0  0  0  0  0  0  0  0  0  0  0
   -1.3958    1.0333    0.0000 C   0  0  0  0  0  0  0  0  0  0  0  0
    1.1667   -0.5000    0.0000 C   0  0  0  0  0  0  0  0  0  0  0  0
   -2.1208    0.5250    0.0000 H   0  0  0  0  0  0  0  0  0  0  0  0
   -2.6583    0.5500    0.0000 H   0  0  0  0  0  0  0  0  0  0  0  0
    3.2500    0.4833    0.0000 N   0  0  0  0  0  0  0  0  0  0  0  0
    3.2500    0.1125    0.0000 C   0  0  0  0  0  0  0  0  0  0  0  0
    2.8167    0.4833    0.0000 C   0  0  0  0  0  0  0  0  0  0  0  0
    2.8167    0.1208    0.0000 C   0  0  0  0  0  0  0  0  0  0  0  0
    3.5792    0.7208    0.0000 C   0  0  0  0  0  0  0  0  0  0  0  0
    3.9125    0.1125    0.0000 S   0  0  0  0  0  0  0  0  0  0  0  0
    3.9125    0.4833    0.0000 C   0  0  0  0  0  0  0  0  0  0  0  0
    2.5000   -0.1417    0.0000 N   0  0  0  0  0  0  0  0  0  0  0  0
    3.5792    1.1583    0.0000 C   0  0  0  0  0  0  0  0  0  0  0  0
    2.1000    0.0000    0.0000 C   0  0  0  0  0  0  0  0  0  0  0  0
    2.5000    0.7625    0.0000 O   0  0  0  0  0  0  0  0  0  0  0  0
    3.2167    1.3458    0.0000 O   0  0  0  0  0  0  0  0  0  0  0  0
    2.0250    0.4208    0.0000 O   0  0  0  0  0  0  0  0  0  0  0  0
    1.8500   -0.6917    0.0000 O   0  0  0  0  0  0  0  0  0  0  0  0
    1.7667   -0.2792    0.0000 C   0  0  0  0  0  0  0  0  0  0  0  0
    3.9542    1.3583    0.0000 O   0  0  0  0  0  0  0  0  0  0  0  0
    4.3167    0.6958    0.0000 C   0  0  0  0  0  0  0  0  0  0  0  0
    4.3417    0.3750    0.0000 C   0  0  0  0  0  0  0  0  0  0  0  0
    2.2500   -0.8375    0.0000 C   0  0  0  0  0  0  0  0  0  0  0  0
    2.5667   -0.5625    0.0000 C   0  0  0  0  0  0  0  0  0  0  0  0
    2.3125   -1.2542    0.0000 C   0  0  0  0  0  0  0  0  0  0  0  0
    2.9750   -0.7125    0.0000 C   0  0  0  0  0  0  0  0  0  0  0  0
    2.7167   -1.4042    0.0000 C   0  0  0  0  0  0  0  0  0  0  0  0
    3.0417   -1.1375    0.0000 C   0  0  0  0  0  0  0  0  0  0  0  0
    3.0375   -0.2375    0.0000 H   0  0  0  0  0  0  0  0  0  0  0  0
  2  4  2  0
  3  5  1  0
  4  1  1  0
  5  1  1  0
  6  1  1  0
  7 13  1  0
  8  2  1  0
  9 15  1  0
 10  8  1  0
 11  9  1  0
 12 11  1  0
 13  6  1  0
 14  3  1  0
 15  6  1  0
 16 14  1  0
 17 19  1  0
 18 32  1  0
 19 16  1  0
 20  5  2  0
 21  8  2  0
 13 22  1  6
 23 10  1  0
  1 24  1  6
 25 14  2  0
 26  4  1  0
 27  7  1  0
 11 28  1  1
 29 17  1  0
 30 17  1  0
 31 29  1  0
 32 30  1  0
 33 12  1  0
 11 34  1  6
 35 23  1  0
 36 18  1  0
 37 42  1  0
 38 33  2  0
 39 23  2  0
 40 22  1  0
 41 22  1  0
 42 36  1  0
  6 43  1  6
  9 44  1  6
  2  9  1  0
  3  7  2  0
 10 12  2  0
 38 39  1  0
 31 18  1  0
 46 45  1  0
 47 45  1  0
 48 47  1  0
 49 45  1  0
 50 46  1  0
 51 49  1  0
 48 52  1  6
 49 53  1  1
 54 52  1  0
 55 47  2  0
 56 53  2  0
 57 54  2  0
 58 59  1  0
 59 54  1  0
 60 53  1  0
 61 51  1  0
 62 51  1  0
 63 58  1  0
 64 63  1  0
 65 63  2  0
 66 64  2  0
 67 65  1  0
 68 67  2  0
 46 69  1  1
 50 51  1  0
 46 48  1  0
 66 68  1  0
M  END

> <chembl_id>
CHEMBL3833378

> <chembl_pref_name>
PENIMEPICYCLINE

$$$$

     RDKit          2D

 21 22  0  0  0  0  0  0  0  0999 V2000
    1.9211    2.0460    0.0000 N   0  0  0  0  0  0  0  0  0  0  0  0
    1.2066    2.4585    0.0000 C   0  0  0  0  0  0  0  0  0  0  0  0
    1.2066    3.2835    0.0000 N   0  0  0  0  0  0  0  0  0  0  0  0
    0.4921    2.0460    0.0000 N   0  0  0  0  0  0  0  0  0  0  0  0
    0.4921    1.2210    0.0000 C   0  0  0  0  0  0  0  0  0  0  0  0
   -0.2223    0.8085    0.0000 N   0  0  0  0  0  0  0  0  0  0  0  0
    1.2066    0.8085    0.0000 C   0  0  0  0  0  0  0  0  0  0  0  0
    1.9211    1.2210    0.0000 C   0  0  0  0  0  0  0  0  0  0  0  0
    1.2066   -0.0165    0.0000 C   0  0  0  0  0  0  0  0  0  0  0  0
    0.4921   -0.4290    0.0000 C   0  0  0  0  0  0  0  0  0  0  0  0
    0.4921   -1.2540    0.0000 C   0  0  0  0  0  0  0  0  0  0  0  0
   -0.2223   -1.6665    0.0000 C   0  0  0  0  0  0  0  0  0  0  0  0
   -0.9368   -1.2540    0.0000 C   0  0  0  0  0  0  0  0  0  0  0  0
   -0.9368   -0.4290    0.0000 C   0  0  0  0  0  0  0  0  0  0  0  0
   -0.2223   -0.0165    0.0000 C   0  0  0  0  0  0  0  0  0  0  0  0
   -0.2223   -2.4915    0.0000 O   0  0  0  0  0  0  0  0  0  0  0  0
   -1.6513   -1.6665    0.0000 O   0  0  0  0  0  0  0  0  0  0  0  0
   -1.6513   -0.0165    0.0000 O   0  0  0  0  0  0  0  0  0  0  0  0
   -0.9368   -2.9040    0.0000 C   0  0  0  0  0  0  0  0  0  0  0  0
   -1.6513   -2.4915    0.0000 C   0  0  0  0  0  0  0  0  0  0  0  0
   -1.6513    0.8085    0.0000 C   0  0  0  0  0  0  0  0  0  0  0  0
  2  1  2  0
  8  1  1  0
  2  3  1  0
  2  4  1  0
  5  4  2  0
  5  6  1  0
  5  7  1  0
  7  8  2  0
  7  9  1  0
 10  9  1  0
 10 11  2  0
 10 15  1  0
 11 12  1  0
 12 13  2  0
 12 16  1  0
 13 14  1  0
 13 17  1  0
 14 15  2  0
 14 18  1  0
 19 16  1  0
 20 17  1  0
 21 18  1  0
M  END

> <chembl_id>
CHEMBL22

> <chembl_pref_name>
TRIMETHOPRIM

$$$$

     RDKit          2D

 32 35  0  0  0  0  0  0  0  0999 V2000
    5.7121  -23.0671    0.0000 N   0  0  0  0  0  0  0  0  0  0  0  0
    4.8949  -23.0795    0.0000 C   0  0  0  0  0  0  0  0  0  0  0  0
    4.9031  -23.8967    0.0000 C   0  0  0  0  0  0  0  0  0  0  0  0
    5.7203  -23.8925    0.0000 C   0  0  0  0  0  0  0  0  0  0  0  0
    9.2409  -22.6296    0.0000 C   0  0  0  0  0  0  0  0  0  0  0  0
    6.4178  -22.6585    0.0000 C   0  0  0  0  0  0  0  0  0  0  0  0
    9.4844  -21.8537    0.0000 N   0  0  0  0  0  0  0  0  0  0  0  0
    9.9095  -23.1001    0.0000 N   0  0  0  0  0  0  0  0  0  0  0  0
   10.5657  -22.6172    0.0000 N   0  0  0  0  0  0  0  0  0  0  0  0
   10.3016  -21.8413    0.0000 N   0  0  0  0  0  0  0  0  0  0  0  0
    4.2015  -24.3135    0.0000 N   0  0  0  0  0  0  0  0  0  0  0  0
    6.4302  -24.2929    0.0000 S   0  0  0  0  0  0  0  0  0  0  0  0
    7.1236  -23.0547    0.0000 C   0  0  0  0  0  0  0  0  0  0  0  0
    3.4834  -23.9173    0.0000 C   0  0  0  0  0  0  0  0  0  0  0  0
    6.4055  -21.8413    0.0000 C   0  0  0  0  0  0  0  0  0  0  0  0
    8.5475  -23.0506    0.0000 S   0  0  0  0  0  0  0  0  0  0  0  0
    7.1360  -23.8719    0.0000 C   0  0  0  0  0  0  0  0  0  0  0  0
    2.7859  -24.3383    0.0000 C   0  0  0  0  0  0  0  0  0  0  0  0
    4.3130  -22.5099    0.0000 O   0  0  0  0  0  0  0  0  0  0  0  0
    7.8294  -22.6461    0.0000 C   0  0  0  0  0  0  0  0  0  0  0  0
    3.4793  -23.1001    0.0000 O   0  0  0  0  0  0  0  0  0  0  0  0
    5.6997  -21.4410    0.0000 O   0  0  0  0  0  0  0  0  0  0  0  0
    2.8024  -25.1472    0.0000 C   0  0  0  0  0  0  0  0  0  0  0  0
    8.9932  -21.1974    0.0000 C   0  0  0  0  0  0  0  0  0  0  0  0
    7.1112  -21.4203    0.0000 O   0  0  0  0  0  0  0  0  0  0  0  0
    2.0719  -23.9421    0.0000 O   0  0  0  0  0  0  0  0  0  0  0  0
    2.0966  -25.5682    0.0000 C   0  0  0  0  0  0  0  0  0  0  0  0
    3.5081  -25.5517    0.0000 C   0  0  0  0  0  0  0  0  0  0  0  0
    3.5288  -26.3689    0.0000 C   0  0  0  0  0  0  0  0  0  0  0  0
    2.1090  -26.3854    0.0000 C   0  0  0  0  0  0  0  0  0  0  0  0
    2.8230  -26.7898    0.0000 C   0  0  0  0  0  0  0  0  0  0  0  0
    5.7245  -24.7015    0.0000 H   0  0  0  0  0  0  0  0  0  0  0  0
  2  1  1  0
  3  4  1  0
  4  1  1  0
  5 16  1  0
  6  1  1  0
  7  5  1  0
  8  5  2  0
  9  8  1  0
 10  7  1  0
  3 11  1  6
 12  4  1  0
 13  6  2  0
 14 11  1  0
 15  6  1  0
 16 20  1  0
 17 13  1  0
 18 14  1  0
 19  2  2  0
 20 13  1  0
 21 14  2  0
 22 15  2  0
 23 18  1  0
 24  7  1  0
 25 15  1  0
 18 26  1  1
 27 23  2  0
 28 23  1  0
 29 28  2  0
 30 27  1  0
 31 29  1  0
  4 32  1  1
  2  3  1  0
 17 12  1  0
  9 10  2  0
 31 30  2  0
M  END

> <chembl_id>
CHEMBL1146

> <chembl_pref_name>
CEFAMANDOLE

$$$$

     RDKit          2D

 33 35  0  0  1  0  0  0  0  0999 V2000
    7.5583    4.5048    0.0000 S   0  0  0  0  0  0  0  0  0  0  0  0
   14.6895    2.8673    0.0000 S   0  0  0  0  0  0  0  0  0  0  0  0
    1.1893    2.6942    0.0000 O   0  0  0  0  0  0  0  0  0  0  0  0
    2.9657    7.5247    0.0000 O   0  0  0  0  0  0  0  0  0  0  0  0
    7.1073    1.5529    0.0000 O   0  0  0  0  0  0  0  0  0  0  0  0
    4.6364    0.7500    0.0000 O   0  0  0  0  0  0  0  0  0  0  0  0
   15.6335    4.0330    0.0000 O   0  0  0  0  0  0  0  0  0  0  0  0
   13.9623    1.5554    0.0000 O   0  0  0  0  0  0  0  0  0  0  0  0
    3.7500    3.7548    0.0000 N   0  0  0  0  0  0  0  0  0  0  0  0
   10.2718    1.7792    0.0000 N   0  0  0  0  0  0  0  0  0  0  0  0
   13.3192    3.4774    0.0000 N   0  0  0  0  0  0  0  0  0  0  0  0
   15.9330    2.0285    0.0000 N   0  0  0  0  0  0  0  0  0  0  0  0
    3.7500    5.2548    0.0000 C   0  0  0  0  0  0  0  0  0  0  0  0
    2.2500    5.2548    0.0000 C   0  0  0  0  0  0  0  0  0  0  0  0
    5.1766    5.7184    0.0000 C   0  0  0  0  0  0  0  0  0  0  0  0
    2.2500    3.7548    0.0000 C   0  0  0  0  0  0  0  0  0  0  0  0
    5.1766    3.2913    0.0000 C   0  0  0  0  0  0  0  0  0  0  0  0
    6.0583    4.5048    0.0000 C   0  0  0  0  0  0  0  0  0  0  0  0
    1.7370    6.6644    0.0000 C   0  0  0  0  0  0  0  0  0  0  0  0
    5.6401    1.8647    0.0000 C   0  0  0  0  0  0  0  0  0  0  0  0
    6.4756    6.4684    0.0000 C   0  0  0  0  0  0  0  0  0  0  0  0
    8.3083    3.2058    0.0000 C   0  0  0  0  0  0  0  0  0  0  0  0
    0.3775    6.0304    0.0000 C   0  0  0  0  0  0  0  0  0  0  0  0
    9.5218    4.0875    0.0000 C   0  0  0  0  0  0  0  0  0  0  0  0
    8.7718    1.7792    0.0000 C   0  0  0  0  0  0  0  0  0  0  0  0
   10.7353    3.2058    0.0000 C   0  0  0  0  0  0  0  0  0  0  0  0
   12.1056    2.5957    0.0000 C   0  0  0  0  0  0  0  0  0  0  0  0
    3.5153    6.7364    0.0000 H   0  0  0  0  0  0  0  0  0  0  0  0
    0.7500    5.2548    0.0000 H   0  0  0  0  0  0  0  0  0  0  0  0
    4.5665    7.0887    0.0000 H   0  0  0  0  0  0  0  0  0  0  0  0
    0.9870    7.9634    0.0000 H   0  0  0  0  0  0  0  0  0  0  0  0
    6.9380    2.5957    0.0000 H   0  0  0  0  0  0  0  0  0  0  0  0
   11.4853    4.5048    0.0000 H   0  0  0  0  0  0  0  0  0  0  0  0
  1 18  1  0
 22  1  1  0
  2  7  2  0
  2  8  2  0
  2 11  1  0
  2 12  1  0
  3 16  2  0
 19  4  1  0
  5 20  2  0
  6 20  1  0
  9 13  1  0
  9 16  1  0
  9 17  1  0
 10 25  1  0
 10 26  1  0
 11 27  1  0
 13 14  1  0
 13 15  1  0
 13 28  1  6
 14 16  1  0
 14 19  1  0
 14 29  1  1
 15 18  1  0
 15 21  1  0
 15 30  1  6
 17 18  2  0
 17 20  1  0
 19 23  1  0
 19 31  1  6
 22 24  1  0
 22 25  1  0
 22 32  1  6
 24 26  1  0
 26 27  1  0
 26 33  1  6
M  END

> <chembl_id>
CHEMBL491571

> <chembl_pref_name>
DORIPENEM

$$$$

     RDKit          2D

116119  0  0  0  0  0  0  0  0999 V2000
    8.0389  -13.3535    0.0000 C   0  0  0  0  0  0  0  0  0  0  0  0
    7.9628  -14.1744    0.0000 C   0  0  0  0  0  0  0  0  0  0  0  0
    8.8492  -13.1814    0.0000 C   0  0  0  0  0  0  0  0  0  0  0  0
    7.4898  -12.7417    0.0000 C   0  0  0  0  0  0  0  0  0  0  0  0
    7.2487  -14.5855    0.0000 C   0  0  0  0  0  0  0  0  0  0  0  0
    8.7129  -14.5098    0.0000 C   0  0  0  0  0  0  0  0  0  0  0  0
    9.2619  -13.8927    0.0000 N   0  0  0  0  0  0  0  0  0  0  0  0
    9.1054  -12.3969    0.0000 C   0  0  0  0  0  0  0  0  0  0  0  0
    7.7400  -11.9573    0.0000 C   0  0  0  0  0  0  0  0  0  0  0  0
    7.2487  -15.4140    0.0000 C   0  0  0  0  0  0  0  0  0  0  0  0
    8.5462  -11.7896    0.0000 C   0  0  0  0  0  0  0  0  0  0  0  0
    7.9637  -15.8256    0.0000 C   0  0  0  0  0  0  0  0  0  0  0  0
    6.5354  -15.8246    0.0000 N   0  0  0  0  0  0  0  0  0  0  0  0
    8.6781  -15.4143    0.0000 N   0  0  0  0  0  0  0  0  0  0  0  0
    7.9637  -16.6473    0.0000 O   0  0  0  0  0  0  0  0  0  0  0  0
    5.8217  -15.4137    0.0000 C   0  0  0  0  0  0  0  0  0  0  0  0
    9.3920  -15.8252    0.0000 C   0  0  0  0  0  0  0  0  0  0  0  0
    5.1120  -15.8250    0.0000 C   0  0  0  0  0  0  0  0  0  0  0  0
    5.8217  -14.5873    0.0000 O   0  0  0  0  0  0  0  0  0  0  0  0
   10.1062  -15.4141    0.0000 C   0  0  0  0  0  0  0  0  0  0  0  0
    9.3920  -16.6473    0.0000 C   0  0  0  0  0  0  0  0  0  0  0  0
    4.3934  -15.4140    0.0000 C   0  0  0  0  0  0  0  0  0  0  0  0
   10.8203  -15.8251    0.0000 N   0  0  0  0  0  0  0  0  0  0  0  0
   10.1062  -14.5873    0.0000 O   0  0  0  0  0  0  0  0  0  0  0  0
   10.1062  -17.0629    0.0000 C   0  0  0  0  0  0  0  0  0  0  0  0
    4.3934  -14.5873    0.0000 C   0  0  0  0  0  0  0  0  0  0  0  0
   11.5343  -15.4141    0.0000 C   0  0  0  0  0  0  0  0  0  0  0  0
   10.8203  -16.6474    0.0000 N   0  0  0  0  0  0  0  0  0  0  0  0
   10.1062  -17.8851    0.0000 O   0  0  0  0  0  0  0  0  0  0  0  0
    5.1076  -14.1763    0.0000 C   0  0  0  0  0  0  0  0  0  0  0  0
   12.2485  -15.8251    0.0000 C   0  0  0  0  0  0  0  0  0  0  0  0
   11.5343  -14.5873    0.0000 C   0  0  0  0  0  0  0  0  0  0  0  0
    5.1076  -13.3540    0.0000 C   0  0  0  0  0  0  0  0  0  0  0  0
   12.9626  -15.4141    0.0000 N   0  0  0  0  0  0  0  0  0  0  0  0
   12.2485  -16.6473    0.0000 O   0  0  0  0  0  0  0  0  0  0  0  0
   12.2485  -14.1763    0.0000 C   0  0  0  0  0  0  0  0  0  0  0  0
    5.8216  -12.9385    0.0000 C   0  0  0  0  0  0  0  0  0  0  0  0
   13.6766  -15.8251    0.0000 C   0  0  0  0  0  0  0  0  0  0  0  0
   12.9626  -14.5873    0.0000 O   0  0  0  0  0  0  0  0  0  0  0  0
   12.2485  -13.3540    0.0000 O   0  0  0  0  0  0  0  0  0  0  0  0
    5.8216  -12.1162    0.0000 C   0  0  0  0  0  0  0  0  0  0  0  0
   13.6700  -17.3827    0.0000 C   0  0  0  0  0  0  0  0  0  0  0  0
   14.3856  -15.4115    0.0000 C   0  0  0  0  0  0  0  0  0  0  0  0
    6.5357  -11.7052    0.0000 C   0  0  0  0  0  0  0  0  0  0  0  0
   14.3989  -17.8028    0.0000 O   0  0  0  0  0  0  0  0  0  0  0  0
   12.9558  -17.7983    0.0000 C   0  0  0  0  0  0  0  0  0  0  0  0
   15.1049  -15.8199    0.0000 N   0  0  0  0  0  0  0  0  0  0  0  0
   14.3856  -14.5849    0.0000 O   0  0  0  0  0  0  0  0  0  0  0  0
    6.5357  -10.8785    0.0000 C   0  0  0  0  0  0  0  0  0  0  0  0
   14.4135  -20.2539    0.0000 C   0  0  0  0  0  0  0  0  0  0  0  0
   15.8162  -15.4115    0.0000 C   0  0  0  0  0  0  0  0  0  0  0  0
   15.2309  -20.6841    0.0000 C   0  0  0  0  0  0  0  0  0  0  0  0
   13.6993  -20.6650    0.0000 O   0  0  0  0  0  0  0  0  0  0  0  0
   16.5325  -15.8199    0.0000 C   0  0  0  0  0  0  0  0  0  0  0  0
   18.5884  -20.7001    0.0000 N   0  0  0  0  0  0  0  0  0  0  0  0
   15.0300  -21.4828    0.0000 C   0  0  0  0  0  0  0  0  0  0  0  0
   17.2437  -15.4115    0.0000 N   0  0  0  0  0  0  0  0  0  0  0  0
   16.5325  -16.6465    0.0000 O   0  0  0  0  0  0  0  0  0  0  0  0
   20.3146  -20.4230    0.0000 C   0  0  0  0  0  0  0  0  0  0  0  0
   15.6115  -22.0643    0.0000 C   0  0  0  0  0  0  0  0  0  0  0  0
   18.0596  -15.7416    0.0000 C   0  0  0  0  0  0  0  0  0  0  0  0
   21.7783  -20.7001    0.0000 C   0  0  0  0  0  0  0  0  0  0  0  0
   20.3146  -21.2495    0.0000 O   0  0  0  0  0  0  0  0  0  0  0  0
   15.3986  -22.8632    0.0000 C   0  0  0  0  0  0  0  0  0  0  0  0
   16.4105  -21.8514    0.0000 O   0  0  0  0  0  0  0  0  0  0  0  0
   18.7767  -15.3287    0.0000 C   0  0  0  0  0  0  0  0  0  0  0  0
   18.0036  -14.9177    0.0000 C   0  0  0  0  0  0  0  0  0  0  0  0
   23.0391  -20.2920    0.0000 N   0  0  0  0  0  0  0  0  0  0  0  0
   21.8250  -21.5242    0.0000 C   0  0  0  0  0  0  0  0  0  0  0  0
   14.5986  -23.0755    0.0000 C   0  0  0  0  0  0  0  0  0  0  0  0
   15.9824  -23.4441    0.0000 C   0  0  0  0  0  0  0  0  0  0  0  0
   19.4823  -15.7416    0.0000 N   0  0  0  0  0  0  0  0  0  0  0  0
   18.7767  -16.1553    0.0000 O   0  0  0  0  0  0  0  0  0  0  0  0
   17.2616  -14.5525    0.0000 C   0  0  0  0  0  0  0  0  0  0  0  0
   23.0339  -19.4697    0.0000 C   0  0  0  0  0  0  0  0  0  0  0  0
   21.1408  -21.9786    0.0000 C   0  0  0  0  0  0  0  0  0  0  0  0
   22.5646  -21.8940    0.0000 C   0  0  0  0  0  0  0  0  0  0  0  0
   14.3910  -23.8646    0.0000 C   0  0  0  0  0  0  0  0  0  0  0  0
   14.0170  -22.4940    0.0000 N   0  0  0  0  0  0  0  0  0  0  0  0
   15.7706  -24.2377    0.0000 C   0  0  0  0  0  0  0  0  0  0  0  0
   20.2060  -15.3383    0.0000 C   0  0  0  0  0  0  0  0  0  0  0  0
   17.2101  -13.7286    0.0000 C   0  0  0  0  0  0  0  0  0  0  0  0
   23.7531  -19.0603    0.0000 C   0  0  0  0  0  0  0  0  0  0  0  0
   22.3199  -19.0586    0.0000 O   0  0  0  0  0  0  0  0  0  0  0  0
   21.1919  -22.8028    0.0000 C   0  0  0  0  0  0  0  0  0  0  0  0
   14.9723  -24.4548    0.0000 C   0  0  0  0  0  0  0  0  0  0  0  0
   20.9122  -15.7467    0.0000 C   0  0  0  0  0  0  0  0  0  0  0  0
   20.2060  -14.5117    0.0000 C   0  0  0  0  0  0  0  0  0  0  0  0
   16.4727  -13.3679    0.0000 N   0  0  0  0  0  0  0  0  0  0  0  0
   23.7556  -18.2314    0.0000 N   0  0  0  0  0  0  0  0  0  0  0  0
   24.4672  -19.4759    0.0000 C   0  0  0  0  0  0  0  0  0  0  0  0
   20.5034  -23.2572    0.0000 O   0  0  0  0  0  0  0  0  0  0  0  0
   21.9272  -23.1725    0.0000 O   0  0  0  0  0  0  0  0  0  0  0  0
   21.6213  -15.3383    0.0000 N   0  0  0  0  0  0  0  0  0  0  0  0
   20.9122  -16.5734    0.0000 O   0  0  0  0  0  0  0  0  0  0  0  0
   20.9195  -14.0984    0.0000 C   0  0  0  0  0  0  0  0  0  0  0  0
   24.4654  -17.8244    0.0000 C   0  0  0  0  0  0  0  0  0  0  0  0
   25.1783  -19.0620    0.0000 O   0  0  0  0  0  0  0  0  0  0  0  0
   22.3393  -15.7522    0.0000 C   0  0  0  0  0  0  0  0  0  0  0  0
   21.6356  -14.5106    0.0000 O   0  0  0  0  0  0  0  0  0  0  0  0
   20.9195  -13.2740    0.0000 O   0  0  0  0  0  0  0  0  0  0  0  0
   24.4727  -16.9968    0.0000 C   0  0  0  0  0  0  0  0  0  0  0  0
   25.1795  -18.2354    0.0000 O   0  0  0  0  0  0  0  0  0  0  0  0
   23.0478  -15.3438    0.0000 C   0  0  0  0  0  0  0  0  0  0  0  0
   22.3393  -14.9300    0.0000 C   0  0  0  0  0  0  0  0  0  0  0  0
   25.1885  -16.5787    0.0000 N   0  0  0  0  0  0  0  0  0  0  0  0
   23.7556  -15.7522    0.0000 N   0  0  0  0  0  0  0  0  0  0  0  0
   23.0478  -14.5172    0.0000 O   0  0  0  0  0  0  0  0  0  0  0  0
   25.1942  -15.7706    0.0000 C   0  0  0  0  0  0  0  0  0  0  0  0
   24.4893  -15.3438    0.0000 C   0  0  0  0  0  0  0  0  0  0  0  0
   25.9038  -15.3551    0.0000 O   0  0  0  0  0  0  0  0  0  0  0  0
   24.4893  -14.5173    0.0000 C   0  0  0  0  0  0  0  0  0  0  0  0
   25.2108  -14.1019    0.0000 C   0  0  0  0  0  0  0  0  0  0  0  0
   25.9241  -14.5151    0.0000 O   0  0  0  0  0  0  0  0  0  0  0  0
   25.2108  -13.2840    0.0000 O   0  0  0  0  0  0  0  0  0  0  0  0
   22.6033  -21.2652    0.0000 H   0  0  0  0  0  0  0  0  0  0  0  0
  1  2  1  0
  1  3  2  0
  1  4  1  0
  2  5  1  0
  2  6  2  0
  3  7  1  0
  3  8  1  0
  4  9  2  0
 10  5  1  1
  8 11  2  0
 10 12  1  0
 10 13  1  0
 12 14  1  0
 12 15  2  0
 13 16  1  0
 17 14  1  6
 16 18  1  0
 16 19  2  0
 17 20  1  0
 17 21  1  0
 18 22  1  0
 20 23  1  0
 20 24  2  0
 21 25  1  0
 22 26  1  0
 27 23  1  1
 25 28  1  0
 25 29  2  0
 26 30  1  0
 27 31  1  0
 27 32  1  0
 30 33  1  0
 31 34  1  0
 31 35  2  0
 32 36  1  0
 33 37  1  0
 38 34  1  6
 36 39  1  0
 36 40  2  0
 37 41  1  0
 38 42  1  0
 38 43  1  0
 41 44  1  0
 42 45  1  0
 42 46  1  6
 43 47  1  0
 43 48  2  0
 44 49  1  0
 45 50  1  0
 47 51  1  0
 50 52  1  0
 50 53  2  0
 51 54  1  0
 52 55  1  0
 52 56  1  1
 54 57  1  0
 54 58  2  0
 55 59  1  0
 56 60  1  0
 57 61  1  0
 59 62  1  0
 59 63  2  0
 60 64  1  0
 60 65  2  0
 61 66  1  0
 61 67  1  6
 62 68  1  0
 62 69  1  0
 64 70  2  0
 64 71  1  0
 66 72  1  0
 66 73  2  0
 67 74  1  0
 68 75  1  0
 69 76  1  0
 69 77  1  6
 70 78  1  0
 70 79  1  0
 71 80  2  0
 72 81  1  0
 74 82  1  0
 75 83  1  0
 75 84  2  0
 76 85  1  0
 78 86  2  0
 81 87  1  0
 81 88  1  1
 82 89  1  0
 83 90  1  0
 83 91  1  6
 85 92  1  0
 85 93  2  0
 87 94  1  0
 87 95  2  0
 88 96  1  0
 90 97  1  0
 91 98  1  0
 94 99  1  0
 96100  1  0
 96101  2  0
 97102  1  0
 97103  2  0
 99104  1  0
 99105  1  1
102106  1  0
104107  1  0
104108  2  0
106109  1  0
107110  1  0
109111  2  0
110112  1  1
112113  1  0
113114  1  0
113115  2  0
  6  7  1  0
  9 11  1  0
 80 86  1  0
109110  1  0
 62116  1  6
M  END

> <chembl_id>
CHEMBL387675

> <chembl_pref_name>
DAPTOMYCIN

$$$$

     RDKit          2D

 26 29  0  0  0  0  0  0  0  0999 V2000
   13.7846  -19.9868    0.0000 N   0  0  0  0  0  0  0  0  0  0  0  0
   14.4996  -21.2173    0.0000 C   0  0  0  0  0  0  0  0  0  0  0  0
   13.0613  -20.3984    0.0000 C   0  0  0  0  0  0  0  0  0  0  0  0
   12.3504  -19.9868    0.0000 C   0  0  0  0  0  0  0  0  0  0  0  0
   13.0655  -21.2215    0.0000 C   0  0  0  0  0  0  0  0  0  0  0  0
   14.4954  -20.3859    0.0000 C   0  0  0  0  0  0  0  0  0  0  0  0
   13.7846  -21.6330    0.0000 C   0  0  0  0  0  0  0  0  0  0  0  0
   11.6313  -20.3984    0.0000 C   0  0  0  0  0  0  0  0  0  0  0  0
   12.3504  -19.1512    0.0000 O   0  0  0  0  0  0  0  0  0  0  0  0
   11.6313  -21.2215    0.0000 C   0  0  0  0  0  0  0  0  0  0  0  0
   12.3504  -21.6330    0.0000 C   0  0  0  0  0  0  0  0  0  0  0  0
   10.9204  -19.9868    0.0000 N   0  0  0  0  0  0  0  0  0  0  0  0
   15.2104  -21.6205    0.0000 C   0  0  0  0  0  0  0  0  0  0  0  0
   13.7846  -19.1512    0.0000 C   0  0  0  0  0  0  0  0  0  0  0  0
    9.4987  -19.1596    0.0000 N   0  0  0  0  0  0  0  0  0  0  0  0
   13.7846  -22.4561    0.0000 O   0  0  0  0  0  0  0  0  0  0  0  0
   13.0613  -18.7356    0.0000 C   0  0  0  0  0  0  0  0  0  0  0  0
   10.9329  -19.1596    0.0000 C   0  0  0  0  0  0  0  0  0  0  0  0
   10.2096  -20.3984    0.0000 C   0  0  0  0  0  0  0  0  0  0  0  0
   15.9296  -21.2090    0.0000 O   0  0  0  0  0  0  0  0  0  0  0  0
   10.9204  -21.6330    0.0000 F   0  0  0  0  0  0  0  0  0  0  0  0
    9.4987  -19.9868    0.0000 C   0  0  0  0  0  0  0  0  0  0  0  0
   10.2221  -18.7481    0.0000 C   0  0  0  0  0  0  0  0  0  0  0  0
   15.2188  -22.4436    0.0000 O   0  0  0  0  0  0  0  0  0  0  0  0
    8.7879  -18.7397    0.0000 C   0  0  0  0  0  0  0  0  0  0  0  0
   14.4996  -18.7397    0.0000 C   0  0  0  0  0  0  0  0  0  0  0  0
  2  6  2  0
  3  1  1  0
  4  3  2  0
  5  3  1  0
  6  1  1  0
  7  2  1  0
  8  4  1  0
  9 17  1  0
 10 11  1  0
 11  5  2  0
 12  8  1  0
 13  2  1  0
 14  1  1  0
 15 22  1  0
 16  7  2  0
 17 14  1  0
 18 12  1  0
 19 12  1  0
 20 13  2  0
 21 10  1  0
 22 19  1  0
 23 18  1  0
 24 13  1  0
 25 15  1  0
 14 26  1  6
  9  4  1  0
  5  7  1  0
  8 10  2  0
 23 15  1  0
M  END

> <chembl_id>
CHEMBL33

> <chembl_pref_name>
LEVOFLOXACIN

$$$$

     RDKit          2D

 31 35  0  0  0  0  0  0  0  0999 V2000
   11.2581  -12.0726    0.0000 F   0  0  0  0  0  0  0  0  0  0  0  0
    9.1585   -8.7448    0.0000 C   0  0  0  0  0  0  0  0  0  0  0  0
   11.1775   -9.6257    0.0000 C   0  0  0  0  0  0  0  0  0  0  0  0
   14.0880  -12.8949    0.0000 O   0  0  0  0  0  0  0  0  0  0  0  0
    9.1518  -10.1649    0.0000 N   0  0  0  0  0  0  0  0  0  0  0  0
   13.3806  -11.6670    0.0000 C   0  0  0  0  0  0  0  0  0  0  0  0
   11.2640  -10.4378    0.0000 N   0  0  0  0  0  0  0  0  0  0  0  0
   10.7879   -8.7414    0.0000 H   0  0  0  0  0  0  0  0  0  0  0  0
   14.8024  -10.8442    0.0000 C   0  0  0  0  0  0  0  0  0  0  0  0
   12.6734  -10.4371    0.0000 C   0  0  0  0  0  0  0  0  0  0  0  0
    9.9705  -10.1649    0.0000 C   0  0  0  0  0  0  0  0  0  0  0  0
   14.8024  -11.6691    0.0000 C   0  0  0  0  0  0  0  0  0  0  0  0
   12.6752  -12.0736    0.0000 C   0  0  0  0  0  0  0  0  0  0  0  0
   14.0905  -10.4284    0.0000 N   0  0  0  0  0  0  0  0  0  0  0  0
   10.3841   -9.4526    0.0000 C   0  0  0  0  0  0  0  0  0  0  0  0
    9.9789   -8.7448    0.0000 C   0  0  0  0  0  0  0  0  0  0  0  0
   16.2201  -11.6726    0.0000 O   0  0  0  0  0  0  0  0  0  0  0  0
    9.5544  -10.8666    0.0000 H   0  0  0  0  0  0  0  0  0  0  0  0
    8.7449   -9.4473    0.0000 C   0  0  0  0  0  0  0  0  0  0  0  0
   11.9594   -9.2141    0.0000 C   0  0  0  0  0  0  0  0  0  0  0  0
   12.6734   -9.6204    0.0000 O   0  0  0  0  0  0  0  0  0  0  0  0
   13.6814   -8.9080    0.0000 C   0  0  0  0  0  0  0  0  0  0  0  0
   11.9657  -11.6649    0.0000 C   0  0  0  0  0  0  0  0  0  0  0  0
   14.0880  -12.0781    0.0000 C   0  0  0  0  0  0  0  0  0  0  0  0
   11.9657  -10.8458    0.0000 C   0  0  0  0  0  0  0  0  0  0  0  0
   14.0905   -9.6117    0.0000 C   0  0  0  0  0  0  0  0  0  0  0  0
   14.4982   -8.9080    0.0000 C   0  0  0  0  0  0  0  0  0  0  0  0
   15.5127  -12.8957    0.0000 O   0  0  0  0  0  0  0  0  0  0  0  0
   13.3806  -10.8422    0.0000 C   0  0  0  0  0  0  0  0  0  0  0  0
   10.5186  -10.7695    0.0000 C   0  0  0  0  0  0  0  0  0  0  0  0
   15.5127  -12.0789    0.0000 C   0  0  0  0  0  0  0  0  0  0  0  0
 10 21  1  0
 12 31  1  0
  9 14  1  0
 29 14  1  0
 14 26  1  0
 11 30  1  0
 15 16  1  0
 21 20  1  0
 13  6  2  0
 11 18  1  6
 25 23  2  0
 27 26  1  0
 31 28  1  0
 24  4  2  0
 31 17  2  0
 26 22  1  0
 16  2  1  0
 23 13  1  0
  3 15  1  0
 25  7  1  0
  2 19  1  0
 22 27  1  0
 19  5  1  0
 29 10  2  0
 12  9  2  0
 10 25  1  0
 30  7  1  0
  6 24  1  0
 24 12  1  0
 15  8  1  6
  7  3  1  0
 11 15  1  0
 11  5  1  0
 23  1  1  0
 29  6  1  0
M  END

> <chembl_id>
CHEMBL32

> <chembl_pref_name>
MOXIFLOXACIN

$$$$

     RDKit          2D

 26 27  0  0  0  0  0  0  0  0999 V2000
    0.5625   -6.7417    0.0000 O   0  0  0  0  0  0  0  0  0  0  0  0
    3.0500   -5.2958    0.0000 N   0  0  0  0  0  0  0  0  0  0  0  0
    2.3417   -5.3000    0.0000 C   0  0  0  0  0  0  0  0  0  0  0  0
    2.3417   -4.5875    0.0000 C   0  0  0  0  0  0  0  0  0  0  0  0
    3.6542   -5.6458    0.0000 C   0  0  0  0  0  0  0  0  0  0  0  0
    3.0500   -4.5875    0.0000 C   0  0  0  0  0  0  0  0  0  0  0  0
    1.7250   -4.2292    0.0000 N   0  0  0  0  0  0  0  0  0  0  0  0
    1.1083   -4.5875    0.0000 C   0  0  0  0  0  0  0  0  0  0  0  0
    3.6500   -6.3542    0.0000 C   0  0  0  0  0  0  0  0  0  0  0  0
    4.2667   -5.3000    0.0000 C   0  0  0  0  0  0  0  0  0  0  0  0
    3.6625   -4.2375    0.0000 C   0  0  0  0  0  0  0  0  0  0  0  0
    0.4958   -4.2333    0.0000 C   0  0  0  0  0  0  0  0  0  0  0  0
    1.8458   -5.8000    0.0000 O   0  0  0  0  0  0  0  0  0  0  0  0
    1.1083   -5.2958    0.0000 O   0  0  0  0  0  0  0  0  0  0  0  0
    4.2708   -4.5958    0.0000 C   0  0  0  0  0  0  0  0  0  0  0  0
    3.0333   -6.7042    0.0000 O   0  0  0  0  0  0  0  0  0  0  0  0
   -0.1167   -4.5875    0.0000 C   0  0  0  0  0  0  0  0  0  0  0  0
    4.8750   -5.6583    0.0000 Cl  0  0  0  0  0  0  0  0  0  0  0  0
    0.4958   -3.5250    0.0000 N   0  0  0  0  0  0  0  0  0  0  0  0
    4.2583   -6.7125    0.0000 O   0  0  0  0  0  0  0  0  0  0  0  0
   -0.1167   -5.2875    0.0000 C   0  0  0  0  0  0  0  0  0  0  0  0
   -0.7292   -4.2292    0.0000 C   0  0  0  0  0  0  0  0  0  0  0  0
   -1.3417   -4.5833    0.0000 C   0  0  0  0  0  0  0  0  0  0  0  0
   -0.7250   -5.6458    0.0000 C   0  0  0  0  0  0  0  0  0  0  0  0
   -1.3417   -5.2917    0.0000 C   0  0  0  0  0  0  0  0  0  0  0  0
    3.0417   -3.8792    0.0000 H   0  0  0  0  0  0  0  0  0  0  0  0
  3  2  1  0
  4  6  1  0
  5  2  1  0
  6  2  1  0
  4  7  1  1
  8  7  1  0
  9  5  1  0
 10  5  2  0
 11  6  1  0
 12  8  1  0
 13  3  2  0
 14  8  2  0
 15 10  1  0
 16  9  2  0
 17 12  1  0
 18 10  1  0
 12 19  1  1
 20  9  1  0
 21 17  1  0
 22 17  2  0
 23 22  1  0
 24 21  2  0
 25 24  1  0
  6 26  1  6
  3  4  1  0
 11 15  1  0
 25 23  2  0
M  END

> <chembl_id>
CHEMBL1200610

> <chembl_pref_name>
LORACARBEF

$$$$

     RDKit          2D

 34 36  0  0  1  0  0  0  0  0999 V2000
    8.2341   -0.8531    0.0000 S   0  0  0  0  0  0  0  0  0  0  0  0
   10.4101   -2.1018    0.0000 S   0  0  0  0  0  0  0  0  0  0  0  0
    3.4000   -0.8283    0.0000 S   0  0  0  0  0  0  0  0  0  0  0  0
    6.6144   -0.5934    0.0000 O   0  0  0  0  0  0  0  0  0  0  0  0
    6.1199   -2.7323    0.0000 O   0  0  0  0  0  0  0  0  0  0  0  0
    8.9512   -3.7832    0.0000 O   0  0  0  0  0  0  0  0  0  0  0  0
    7.5788   -3.7832    0.0000 O   0  0  0  0  0  0  0  0  0  0  0  0
    4.8094   -0.0124    0.0000 O   0  0  0  0  0  0  0  0  0  0  0  0
    0.5934   -0.8283    0.0000 O   0  0  0  0  0  0  0  0  0  0  0  0
    1.2858   -2.0523    0.0000 O   0  0  0  0  0  0  0  0  0  0  0  0
    7.5293   -2.1512    0.0000 N   0  0  0  0  0  0  0  0  0  0  0  0
    5.5017   -1.2364    0.0000 N   0  0  0  0  0  0  0  0  0  0  0  0
   11.8689   -2.2378    0.0000 N   0  0  0  0  0  0  0  0  0  0  0  0
   11.1271   -3.3258    0.0000 N   0  0  0  0  0  0  0  0  0  0  0  0
   12.3634   -2.9054    0.0000 N   0  0  0  0  0  0  0  0  0  0  0  0
   11.9308   -3.5483    0.0000 N   0  0  0  0  0  0  0  0  0  0  0  0
    2.0029   -0.0124    0.0000 N   0  0  0  0  0  0  0  0  0  0  0  0
    7.5293   -1.2734    0.0000 C   0  0  0  0  0  0  0  0  0  0  0  0
    6.6144   -1.2734    0.0000 C   0  0  0  0  0  0  0  0  0  0  0  0
    6.6144   -2.1512    0.0000 C   0  0  0  0  0  0  0  0  0  0  0  0
    8.2341   -2.5593    0.0000 C   0  0  0  0  0  0  0  0  0  0  0  0
    8.9882   -2.1389    0.0000 C   0  0  0  0  0  0  0  0  0  0  0  0
    8.9882   -1.2734    0.0000 C   0  0  0  0  0  0  0  0  0  0  0  0
    8.2341   -3.3752    0.0000 C   0  0  0  0  0  0  0  0  0  0  0  0
    4.8094   -0.8283    0.0000 C   0  0  0  0  0  0  0  0  0  0  0  0
    9.7177   -2.4974    0.0000 C   0  0  0  0  0  0  0  0  0  0  0  0
    6.1818    0.0000    0.0000 C   0  0  0  0  0  0  0  0  0  0  0  0
    4.0923   -1.2364    0.0000 C   0  0  0  0  0  0  0  0  0  0  0  0
   11.1271   -2.5345    0.0000 C   0  0  0  0  0  0  0  0  0  0  0  0
    2.6952   -1.2364    0.0000 C   0  0  0  0  0  0  0  0  0  0  0  0
   12.0050   -1.5454    0.0000 C   0  0  0  0  0  0  0  0  0  0  0  0
    2.0029   -0.8283    0.0000 C   0  0  0  0  0  0  0  0  0  0  0  0
    1.2858   -1.2364    0.0000 C   0  0  0  0  0  0  0  0  0  0  0  0
    7.5293   -0.6429    0.0000 H   0  0  0  0  0  0  0  0  0  0  0  0
  1 18  1  0
  1 23  1  0
  2 26  1  0
  2 29  1  0
  3 28  1  0
  3 30  1  0
 19  4  1  6
  4 27  1  0
  5 20  2  0
  6 24  2  0
  7 24  1  0
  8 25  2  0
  9 33  1  0
 10 33  2  0
 11 18  1  0
 11 20  1  0
 11 21  1  0
 19 12  1  1
 12 25  1  0
 13 15  1  0
 13 29  1  0
 13 31  1  0
 14 16  1  0
 14 29  2  0
 15 16  2  0
 32 17  1  6
 18 19  1  0
 18 34  1  6
 19 20  1  0
 21 22  2  0
 21 24  1  0
 22 23  1  0
 22 26  1  0
 25 28  1  0
 30 32  1  0
 32 33  1  0
M  END

> <chembl_id>
CHEMBL1276342

> <chembl_pref_name>
CEFMINOX

$$$$

     RDKit          2D

 59 61  0  0  0  0  0  0  0  0999 V2000
   21.6280   -7.7714    0.0000 C   0  0  0  0  0  0  0  0  0  0  0  0
   22.4530   -6.3514    0.0000 C   0  0  0  0  0  0  0  0  0  0  0  0
   24.9379   -4.9364    0.0000 C   0  0  0  0  0  0  0  0  0  0  0  0
   21.6280   -6.3514    0.0000 C   0  0  0  0  0  0  0  0  0  0  0  0
   21.2179   -7.0664    0.0000 C   0  0  0  0  0  0  0  0  0  0  0  0
   25.3780   -5.6464    0.0000 C   0  0  0  0  0  0  0  0  0  0  0  0
   22.4530   -7.7714    0.0000 O   0  0  0  0  0  0  0  0  0  0  0  0
   21.6280   -9.1964    0.0000 C   0  0  0  0  0  0  0  0  0  0  0  0
   21.2179   -8.4914    0.0000 O   0  0  0  0  0  0  0  0  0  0  0  0
   23.6929   -5.6564    0.0000 C   0  0  0  0  0  0  0  0  0  0  0  0
   22.4530   -9.1964    0.0000 C   0  0  0  0  0  0  0  0  0  0  0  0
   24.1129   -4.9364    0.0000 C   0  0  0  0  0  0  0  0  0  0  0  0
   24.0880  -10.6214    0.0000 C   0  0  0  0  0  0  0  0  0  0  0  0
   24.1180   -6.3614    0.0000 O   0  0  0  0  0  0  0  0  0  0  0  0
   22.8580   -7.0664    0.0000 C   0  0  0  0  0  0  0  0  0  0  0  0
   23.6830   -9.9064    0.0000 C   0  0  0  0  0  0  0  0  0  0  0  0
   22.8580   -9.9064    0.0000 C   0  0  0  0  0  0  0  0  0  0  0  0
   24.9730   -6.3614    0.0000 C   0  0  0  0  0  0  0  0  0  0  0  0
   22.8580   -5.6414    0.0000 O   0  0  0  0  0  0  0  0  0  0  0  0
   21.2179   -9.9064    0.0000 C   0  0  0  0  0  0  0  0  0  0  0  0
   25.1380   -4.2164    0.0000 O   0  0  0  0  0  0  0  0  0  0  0  0
   24.9079  -10.6214    0.0000 O   0  0  0  0  0  0  0  0  0  0  0  0
   26.1730   -5.6414    0.0000 O   0  0  0  0  0  0  0  0  0  0  0  0
   21.6529  -10.6514    0.0000 C   0  0  0  0  0  0  0  0  0  0  0  0
   21.2230   -5.6414    0.0000 N   0  0  0  0  0  0  0  0  0  0  0  0
   24.4429   -3.7964    0.0000 C   0  0  0  0  0  0  0  0  0  0  0  0
   26.5930   -6.3464    0.0000 C   0  0  0  0  0  0  0  0  0  0  0  0
   21.2179  -11.3264    0.0000 C   0  0  0  0  0  0  0  0  0  0  0  0
   23.6830  -11.3264    0.0000 O   0  0  0  0  0  0  0  0  0  0  0  0
   21.6280  -12.0464    0.0000 C   0  0  0  0  0  0  0  0  0  0  0  0
   22.8580  -12.7514    0.0000 C   0  0  0  0  0  0  0  0  0  0  0  0
   23.6530   -4.2014    0.0000 O   0  0  0  0  0  0  0  0  0  0  0  0
   27.4729   -6.3514    0.0000 O   0  0  0  0  0  0  0  0  0  0  0  0
   23.6830  -12.7514    0.0000 C   0  0  0  0  0  0  0  0  0  0  0  0
   22.4530  -12.0464    0.0000 C   0  0  0  0  0  0  0  0  0  0  0  0
   20.3929   -7.0664    0.0000 O   0  0  0  0  0  0  0  0  0  0  0  0
   19.0930   -9.2014    0.0000 O   0  0  0  0  0  0  0  0  0  0  0  0
   24.1129  -12.0164    0.0000 C   0  0  0  0  0  0  0  0  0  0  0  0
   22.8580   -8.4764    0.0000 O   0  0  0  0  0  0  0  0  0  0  0  0
   22.4530  -10.6214    0.0000 O   0  0  0  0  0  0  0  0  0  0  0  0
   19.9780   -9.1964    0.0000 C   0  0  0  0  0  0  0  0  0  0  0  0
   25.7230   -4.4164    0.0000 C   0  0  0  0  0  0  0  0  0  0  0  0
   25.4230  -11.3264    0.0000 C   0  0  0  0  0  0  0  0  0  0  0  0
   21.2179  -12.7664    0.0000 O   0  0  0  0  0  0  0  0  0  0  0  0
   20.3929   -9.9064    0.0000 C   0  0  0  0  0  0  0  0  0  0  0  0
   23.6830   -7.0664    0.0000 C   0  0  0  0  0  0  0  0  0  0  0  0
   25.3429   -7.0664    0.0000 C   0  0  0  0  0  0  0  0  0  0  0  0
   24.4330   -3.0064    0.0000 C   0  0  0  0  0  0  0  0  0  0  0  0
   26.2030   -7.0664    0.0000 C   0  0  0  0  0  0  0  0  0  0  0  0
   21.6580   -4.9664    0.0000 C   0  0  0  0  0  0  0  0  0  0  0  0
   20.2030   -5.6114    0.0000 C   0  0  0  0  0  0  0  0  0  0  0  0
   24.9280  -12.0164    0.0000 C   0  0  0  0  0  0  0  0  0  0  0  0
   20.3530  -11.2514    0.0000 C   0  0  0  0  0  0  0  0  0  0  0  0
   23.6980   -8.4764    0.0000 C   0  0  0  0  0  0  0  0  0  0  0  0
   26.2480  -11.3114    0.0000 C   0  0  0  0  0  0  0  0  0  0  0  0
   26.6329   -7.7164    0.0000 C   0  0  0  0  0  0  0  0  0  0  0  0
   25.1980   -2.7314    0.0000 C   0  0  0  0  0  0  0  0  0  0  0  0
   26.2180   -8.4464    0.0000 C   0  0  0  0  0  0  0  0  0  0  0  0
   20.6530   -9.2114    0.0000 H   0  0  0  0  0  0  0  0  0  0  0  0
  2 15  1  0
  3 12  1  0
  4  5  1  0
  5  1  1  0
  6 18  1  0
  7  1  1  0
  8  9  1  0
  1  9  1  1
 10 19  1  1
 11  8  1  0
 12 10  1  0
 13 16  1  0
 14 10  1  0
 15  7  1  0
 16 17  1  0
 17 11  1  0
 18 14  1  0
  2 19  1  6
 20  8  1  0
  3 21  1  1
 22 13  1  0
  6 23  1  1
 24 20  1  0
  4 25  1  1
 26 21  1  0
 27 23  1  0
 28 24  1  0
 29 13  2  0
 30 28  1  0
 31 35  2  0
 32 26  2  0
 33 27  2  0
 34 31  1  0
 35 30  1  0
  5 36  1  6
 37 41  2  0
 38 34  2  0
 11 39  1  1
 17 40  1  1
 41 45  1  0
 42  3  1  0
 43 22  1  0
 30 44  1  6
 20 45  1  6
 15 46  1  1
 18 47  1  6
 48 26  1  0
 49 27  1  0
 50 25  1  0
 51 25  1  0
 52 43  1  0
 28 53  1  6
 54 39  1  0
 43 55  1  6
 56 49  1  0
 57 48  1  0
 58 56  1  0
  8 59  1  1
  4  2  1  0
  3  6  1  0
 52 38  1  0
M  END

> <chembl_id>
CHEMBL1908350

> <chembl_pref_name>
ROKITAMYCIN

$$$$

     RDKit          2D

 36 39  0  0  0  0  0  0  0  0999 V2000
  -22.9821   -1.5321    0.0000 C   0  0  0  0  0  0  0  0  0  0  0  0
  -23.3946   -0.8177    0.0000 C   0  0  0  0  0  0  0  0  0  0  0  0
  -24.2197   -0.8177    0.0000 C   0  0  0  0  0  0  0  0  0  0  0  0
  -24.6322   -1.5321    0.0000 C   0  0  0  0  0  0  0  0  0  0  0  0
  -24.2197   -2.2466    0.0000 C   0  0  0  0  0  0  0  0  0  0  0  0
  -23.3946   -2.2466    0.0000 C   0  0  0  0  0  0  0  0  0  0  0  0
  -22.2677   -1.9446    0.0000 S   0  0  0  0  0  0  0  0  0  0  0  0
  -21.4427   -1.5321    0.0000 C   0  0  0  0  0  0  0  0  0  0  0  0
  -20.7542   -1.9867    0.0000 C   0  0  0  0  0  0  0  0  0  0  0  0
  -20.0163   -1.6177    0.0000 O   0  0  0  0  0  0  0  0  0  0  0  0
  -20.8036   -2.8102    0.0000 O   0  0  0  0  0  0  0  0  0  0  0  0
  -19.3278   -2.0723    0.0000 C   0  0  0  0  0  0  0  0  0  0  0  0
  -17.9195   -2.6557    0.0000 C   0  0  0  0  0  0  0  0  0  0  0  0
  -18.5028   -2.0723    0.0000 C   0  0  0  0  0  0  0  0  0  0  0  0
  -19.9112   -2.6557    0.0000 C   0  0  0  0  0  0  0  0  0  0  0  0
  -19.9112   -3.4807    0.0000 C   0  0  0  0  0  0  0  0  0  0  0  0
  -19.3278   -4.0640    0.0000 C   0  0  0  0  0  0  0  0  0  0  0  0
  -18.5028   -4.0640    0.0000 C   0  0  0  0  0  0  0  0  0  0  0  0
  -17.9195   -3.4807    0.0000 C   0  0  0  0  0  0  0  0  0  0  0  0
  -20.7081   -3.2671    0.0000 C   0  0  0  0  0  0  0  0  0  0  0  0
  -20.4945   -4.0640    0.0000 C   0  0  0  0  0  0  0  0  0  0  0  0
  -21.3195   -4.0640    0.0000 C   0  0  0  0  0  0  0  0  0  0  0  0
  -19.6435   -4.8262    0.0000 O   0  0  0  0  0  0  0  0  0  0  0  0
  -18.1871   -4.8262    0.0000 C   0  0  0  0  0  0  0  0  0  0  0  0
  -17.1349   -3.7356    0.0000 C   0  0  0  0  0  0  0  0  0  0  0  0
  -16.6499   -3.0682    0.0000 C   0  0  0  0  0  0  0  0  0  0  0  0
  -17.1348   -2.4008    0.0000 C   0  0  0  0  0  0  0  0  0  0  0  0
  -17.2182   -3.0446    0.0000 C   0  0  0  0  0  0  0  0  0  0  0  0
  -17.7883   -1.6598    0.0000 C   0  0  0  0  0  0  0  0  0  0  0  0
  -17.8665   -2.2123    0.0000 C   0  0  0  0  0  0  0  0  0  0  0  0
  -17.3267   -0.9760    0.0000 C   0  0  0  0  0  0  0  0  0  0  0  0
  -18.7163   -1.2754    0.0000 C   0  0  0  0  0  0  0  0  0  0  0  0
  -16.8799   -1.6162    0.0000 O   0  0  0  0  0  0  0  0  0  0  0  0
  -18.6817   -2.9714    0.0000 H   0  0  0  0  0  0  0  0  0  0  0  0
  -25.4572   -1.5321    0.0000 N   0  0  0  0  0  0  0  0  0  0  0  0
  -22.9821   -2.9611    0.0000 O   0  0  0  0  0  0  0  0  0  0  0  0
  1  2  1  0
  2  3  1  0
  3  4  1  0
  4  5  1  0
  5  6  1  0
  6  1  1  0
  1  7  1  1
  7  8  1  0
  8  9  1  0
  9 10  1  0
  9 11  2  0
 12 10  1  1
 14 12  1  0
 12 15  1  0
 13 14  1  0
 15 16  1  0
 16 17  1  0
 17 18  1  0
 18 19  1  0
 16 20  1  1
 16 21  1  0
 21 22  2  0
 17 23  1  6
 18 24  1  1
 19 25  1  0
 13 19  1  0
 13 27  1  0
 25 26  1  0
 26 27  1  0
 19 28  1  6
 14 29  1  0
 28 30  1  0
 30 29  1  0
 29 31  1  6
 14 32  1  1
 27 33  2  0
 13 34  1  1
  4 35  1  6
  6 36  1  6
M  END

> <chembl_id>
CHEMBL3291398

> <chembl_pref_name>
LEFAMULIN

$$$$

     RDKit          2D

 19 20  0  0  0  0  0  0  0  0999 V2000
    0.9625  -10.0500    0.0000 S   0  0  0  0  0  0  0  0  0  0  0  0
    1.5750   -9.6917    0.0000 N   0  0  0  0  0  0  0  0  0  0  0  0
    2.1875  -10.0542    0.0000 C   0  0  0  0  0  0  0  0  0  0  0  0
    0.3500   -9.6917    0.0000 C   0  0  0  0  0  0  0  0  0  0  0  0
    2.8000   -9.7000    0.0000 N   0  0  0  0  0  0  0  0  0  0  0  0
    2.1875  -10.7667    0.0000 N   0  0  0  0  0  0  0  0  0  0  0  0
    0.6125  -10.6625    0.0000 O   0  0  0  0  0  0  0  0  0  0  0  0
    1.3250  -10.6625    0.0000 O   0  0  0  0  0  0  0  0  0  0  0  0
    3.4125  -10.7667    0.0000 C   0  0  0  0  0  0  0  0  0  0  0  0
   -0.2625  -10.0417    0.0000 C   0  0  0  0  0  0  0  0  0  0  0  0
    0.3542   -8.9875    0.0000 C   0  0  0  0  0  0  0  0  0  0  0  0
    3.4125  -10.0542    0.0000 C   0  0  0  0  0  0  0  0  0  0  0  0
    2.8000  -11.1167    0.0000 C   0  0  0  0  0  0  0  0  0  0  0  0
   -0.8708   -8.9792    0.0000 C   0  0  0  0  0  0  0  0  0  0  0  0
   -1.4833   -8.6250    0.0000 N   0  0  0  0  0  0  0  0  0  0  0  0
   -0.8750   -9.6917    0.0000 C   0  0  0  0  0  0  0  0  0  0  0  0
   -0.2583   -8.6292    0.0000 C   0  0  0  0  0  0  0  0  0  0  0  0
    4.0250  -11.1167    0.0000 O   0  0  0  0  0  0  0  0  0  0  0  0
    4.6417  -10.7667    0.0000 C   0  0  0  0  0  0  0  0  0  0  0  0
  2  1  1  0
  3  2  1  0
  4  1  1  0
  5  3  2  0
  6  3  1  0
  7  1  2  0
  8  1  2  0
  9 13  1  0
 10  4  2  0
 11  4  1  0
 12  5  1  0
 13  6  2  0
 14 17  1  0
 15 14  1  0
 16 10  1  0
 17 11  2  0
 18  9  1  0
 19 18  1  0
 14 16  2  0
  9 12  2  0
M  END

> <chembl_id>
CHEMBL1200359

> <chembl_pref_name>
SULFAMETER

$$$$

     RDKit          2D

 27 29  0  0  1  0  0  0  0  0999 V2000
    0.8958   -6.0833    0.0000 N   0  0  0  0  0  0  0  0  0  0  0  0
    0.8917   -5.3750    0.0000 C   0  0  0  0  0  0  0  0  0  0  0  0
    0.1875   -6.0875    0.0000 C   0  0  0  0  0  0  0  0  0  0  0  0
    0.1875   -5.3750    0.0000 C   0  0  0  0  0  0  0  0  0  0  0  0
    1.5708   -6.3000    0.0000 C   0  0  0  0  0  0  0  0  0  0  0  0
    1.5667   -5.1542    0.0000 S   0  0  0  0  0  0  0  0  0  0  0  0
    1.9875   -5.7250    0.0000 C   0  0  0  0  0  0  0  0  0  0  0  0
   -1.0500   -5.3750    0.0000 C   0  0  0  0  0  0  0  0  0  0  0  0
   -0.4333   -5.0167    0.0000 N   0  0  0  0  0  0  0  0  0  0  0  0
   -1.6625   -5.0208    0.0000 C   0  0  0  0  0  0  0  0  0  0  0  0
    1.5667   -7.0042    0.0000 C   0  0  0  0  0  0  0  0  0  0  0  0
   -0.3167   -6.5875    0.0000 O   0  0  0  0  0  0  0  0  0  0  0  0
   -1.0500   -6.0833    0.0000 O   0  0  0  0  0  0  0  0  0  0  0  0
   -1.6583   -4.3083    0.0000 C   0  0  0  0  0  0  0  0  0  0  0  0
   -2.2708   -5.3750    0.0000 C   0  0  0  0  0  0  0  0  0  0  0  0
    2.1750   -7.3667    0.0000 O   0  0  0  0  0  0  0  0  0  0  0  0
    0.9458   -7.3542    0.0000 O   0  0  0  0  0  0  0  0  0  0  0  0
    2.6000   -6.0792    0.0000 C   0  0  0  0  0  0  0  0  0  0  0  0
    2.6000   -5.3667    0.0000 C   0  0  0  0  0  0  0  0  0  0  0  0
   -1.0417   -3.9583    0.0000 O   0  0  0  0  0  0  0  0  0  0  0  0
   -2.2667   -6.0792    0.0000 O   0  0  0  0  0  0  0  0  0  0  0  0
   -2.8833   -4.3083    0.0000 C   0  0  0  0  0  0  0  0  0  0  0  0
   -2.8833   -5.0208    0.0000 C   0  0  0  0  0  0  0  0  0  0  0  0
   -2.2708   -3.9542    0.0000 C   0  0  0  0  0  0  0  0  0  0  0  0
   -0.4292   -4.3125    0.0000 C   0  0  0  0  0  0  0  0  0  0  0  0
   -1.6500   -6.4333    0.0000 C   0  0  0  0  0  0  0  0  0  0  0  0
    0.8875   -4.6667    0.0000 H   0  0  0  0  0  0  0  0  0  0  0  0
  2  1  1  0
  3  1  1  0
  4  3  1  0
  5  1  1  0
  6  2  1  0
  7  5  1  0
  8  9  1  0
  4  9  1  1
 10  8  1  0
  5 11  1  6
 12  3  2  0
 13  8  2  0
 14 10  2  0
 15 10  1  0
 16 11  1  0
 17 11  2  0
 18  7  1  0
 19  7  1  0
 20 14  1  0
 21 15  1  0
 22 23  1  0
 23 15  2  0
 24 14  1  0
 25 20  1  0
 26 21  1  0
  2 27  1  6
  4  2  1  0
  6  7  1  0
 22 24  2  0
M  END

> <chembl_id>
CHEMBL575

> <chembl_pref_name>
METHICILLIN

$$$$

     RDKit          2D

 28 30  0  0  1  0  0  0  0  0999 V2000
    2.0292    0.1375    0.0000 N   0  0  0  0  0  0  0  0  0  0  0  0
    2.0292   -0.7125    0.0000 C   0  0  0  0  0  0  0  0  0  0  0  0
    1.1750    0.1375    0.0000 C   0  0  0  0  0  0  0  0  0  0  0  0
    1.1750   -0.7125    0.0000 C   0  0  0  0  0  0  0  0  0  0  0  0
    2.8417    0.3833    0.0000 C   0  0  0  0  0  0  0  0  0  0  0  0
    2.8417   -0.9667    0.0000 S   0  0  0  0  0  0  0  0  0  0  0  0
    3.3167   -0.3000    0.0000 C   0  0  0  0  0  0  0  0  0  0  0  0
    0.1125   -0.5167    0.0000 N   0  0  0  0  0  0  0  0  0  0  0  0
   -0.5833   -0.0125    0.0000 C   0  0  0  0  0  0  0  0  0  0  0  0
    3.5167    0.8750    0.0000 C   0  0  0  0  0  0  0  0  0  0  0  0
   -2.0333    0.0875    0.0000 C   0  0  0  0  0  0  0  0  0  0  0  0
   -1.3458   -0.4917    0.0000 C   0  0  0  0  0  0  0  0  0  0  0  0
   -2.7625   -0.3625    0.0000 C   0  0  0  0  0  0  0  0  0  0  0  0
   -3.3958    0.0875    0.0000 C   0  0  0  0  0  0  0  0  0  0  0  0
    0.5792    0.7458    0.0000 O   0  0  0  0  0  0  0  0  0  0  0  0
   -0.5833    0.7208    0.0000 O   0  0  0  0  0  0  0  0  0  0  0  0
   -3.3958    0.8500    0.0000 C   0  0  0  0  0  0  0  0  0  0  0  0
    3.4375    1.7333    0.0000 O   0  0  0  0  0  0  0  0  0  0  0  0
   -2.0333    0.8500    0.0000 C   0  0  0  0  0  0  0  0  0  0  0  0
   -2.6958    1.3083    0.0000 C   0  0  0  0  0  0  0  0  0  0  0  0
   -4.2375   -0.3125    0.0000 Cl  0  0  0  0  0  0  0  0  0  0  0  0
    4.2792    0.5125    0.0000 O   0  0  0  0  0  0  0  0  0  0  0  0
   -4.2375    1.3083    0.0000 Cl  0  0  0  0  0  0  0  0  0  0  0  0
    3.9792   -0.8042    0.0000 C   0  0  0  0  0  0  0  0  0  0  0  0
    4.0250    0.1375    0.0000 C   0  0  0  0  0  0  0  0  0  0  0  0
   -1.3375   -1.3417    0.0000 O   0  0  0  0  0  0  0  0  0  0  0  0
   -0.6750   -1.8292    0.0000 C   0  0  0  0  0  0  0  0  0  0  0  0
    1.8782   -1.7010    0.0000 H   0  0  0  0  0  0  0  0  0  0  0  0
  2  1  1  0
  3  1  1  0
  4  3  1  0
  5  1  1  0
  6  2  1  0
  7  5  1  0
  4  8  1  6
  9  8  1  0
  5 10  1  1
 11 12  1  0
 12  9  1  0
 13 11  1  0
 14 13  2  0
 15  3  2  0
 16  9  2  0
 17 20  2  0
 18 10  2  0
 19 11  2  0
 20 19  1  0
 21 14  1  0
 22 10  1  0
 23 17  1  0
 24  7  1  0
 25  7  1  0
 26 12  1  0
 27 26  1  0
  6  7  1  0
  2  4  1  0
 14 17  1  0
  2 28  1  1
M  END

> <chembl_id>
CHEMBL2106548

> <chembl_pref_name>
CLOMETOCILLIN

$$$$

     RDKit          2D

 38 40  0  0  1  0  0  0  0  0999 V2000
    3.5869   -2.4928    0.0000 O   0  0  0  0  0  0  0  0  0  0  0  0
    2.1521   -5.5058    0.0000 O   0  0  0  0  0  0  0  0  0  0  0  0
    5.0305   -2.4928    0.0000 O   0  0  0  0  0  0  0  0  0  0  0  0
    2.1521   -3.8469    0.0000 O   0  0  0  0  0  0  0  0  0  0  0  0
    1.4437   -4.2504    0.0000 O   0  0  0  0  0  0  0  0  0  0  0  0
    3.5869   -0.8339    0.0000 O   0  0  0  0  0  0  0  0  0  0  0  0
    6.4653   -0.8339    0.0000 O   0  0  0  0  0  0  0  0  0  0  0  0
    5.7389   -5.0933    0.0000 O   0  0  0  0  0  0  0  0  0  0  0  0
    7.1737   -2.0714    0.0000 O   0  0  0  0  0  0  0  0  0  0  0  0
    6.4653   -3.0219    0.0000 O   0  0  0  0  0  0  0  0  0  0  0  0
    5.0305   -3.8469    0.0000 N   0  0  0  0  0  0  0  0  0  0  0  0
    3.5869   -6.3398    0.0000 N   0  0  0  0  0  0  0  0  0  0  0  0
    5.0305    0.0000    0.0000 N   0  0  0  0  0  0  0  0  0  0  0  0
    0.7084   -6.3398    0.0000 N   0  0  0  0  0  0  0  0  0  0  0  0
    0.0000   -2.6004    0.0000 N   0  0  0  0  0  0  0  0  0  0  0  0
    8.6174   -4.2504    0.0000 N   0  0  0  0  0  0  0  0  0  0  0  0
    3.5869   -3.8469    0.0000 C   0  0  0  0  0  0  0  0  0  0  0  0
    2.8785   -4.2683    0.0000 C   0  0  0  0  0  0  0  0  0  0  0  0
    2.8785   -5.0933    0.0000 C   0  0  0  0  0  0  0  0  0  0  0  0
    4.2952   -4.2683    0.0000 C   0  0  0  0  0  0  0  0  0  0  0  0
    4.2952   -2.0714    0.0000 C   0  0  0  0  0  0  0  0  0  0  0  0
    3.5869   -5.5058    0.0000 C   0  0  0  0  0  0  0  0  0  0  0  0
    4.2952   -5.0933    0.0000 C   0  0  0  0  0  0  0  0  0  0  0  0
    4.2952   -1.2285    0.0000 C   0  0  0  0  0  0  0  0  0  0  0  0
    5.0305   -0.8339    0.0000 C   0  0  0  0  0  0  0  0  0  0  0  0
    5.7389   -1.2285    0.0000 C   0  0  0  0  0  0  0  0  0  0  0  0
    5.7389   -2.0714    0.0000 C   0  0  0  0  0  0  0  0  0  0  0  0
    1.4437   -5.0933    0.0000 C   0  0  0  0  0  0  0  0  0  0  0  0
    5.7389   -4.2504    0.0000 C   0  0  0  0  0  0  0  0  0  0  0  0
    0.7084   -5.5058    0.0000 C   0  0  0  0  0  0  0  0  0  0  0  0
    6.4653   -2.4928    0.0000 C   0  0  0  0  0  0  0  0  0  0  0  0
    0.7084   -3.8469    0.0000 C   0  0  0  0  0  0  0  0  0  0  0  0
    6.4653   -3.8469    0.0000 C   0  0  0  0  0  0  0  0  0  0  0  0
    0.0000   -5.0933    0.0000 C   0  0  0  0  0  0  0  0  0  0  0  0
    0.0000   -4.2504    0.0000 C   0  0  0  0  0  0  0  0  0  0  0  0
    0.7084   -3.0219    0.0000 C   0  0  0  0  0  0  0  0  0  0  0  0
    7.1737   -4.2504    0.0000 C   0  0  0  0  0  0  0  0  0  0  0  0
    7.9090   -3.8469    0.0000 C   0  0  0  0  0  0  0  0  0  0  0  0
 17  1  1  1
 21  1  1  6
 19  2  1  1
 28  2  1  6
  3 21  1  0
  3 27  1  0
 18  4  1  6
  5 28  1  0
  5 32  1  0
 24  6  1  6
 26  7  1  6
  8 29  2  0
  9 31  1  0
 33 10  1  1
 20 11  1  6
 11 29  1  0
 22 12  1  6
 25 13  1  1
 30 14  1  6
 15 36  1  0
 16 38  1  0
 17 18  1  0
 17 20  1  0
 18 19  1  0
 19 22  1  0
 20 23  1  0
 21 24  1  0
 22 23  1  0
 24 25  1  0
 25 26  1  0
 26 27  1  0
 27 31  1  1
 28 30  1  0
 29 33  1  0
 30 34  1  0
 32 35  1  0
 32 36  1  1
 33 37  1  0
 34 35  1  0
 37 38  1  0
M  END

> <chembl_id>
CHEMBL426926

> <chembl_pref_name>
ARBEKACIN

$$$$

     RDKit          2D

 29 32  0  0  0  0  0  0  0  0999 V2000
    4.2221   -0.2570    0.0000 S   0  0  0  0  0  0  0  0  0  0  0  0
    4.1358    0.5635    0.0000 C   0  0  0  0  0  0  0  0  0  0  0  0
    3.4214    0.9760    0.0000 S   0  0  0  0  0  0  0  0  0  0  0  0
    2.7069    0.5635    0.0000 C   0  0  0  0  0  0  0  0  0  0  0  0
    1.9924    0.9760    0.0000 C   0  0  0  0  0  0  0  0  0  0  0  0
    1.2780    0.5635    0.0000 C   0  0  0  0  0  0  0  0  0  0  0  0
    1.2780   -0.2615    0.0000 C   0  0  0  0  0  0  0  0  0  0  0  0
    0.5635   -0.6740    0.0000 O   0  0  0  0  0  0  0  0  0  0  0  0
    1.9924   -0.6740    0.0000 O   0  0  0  0  0  0  0  0  0  0  0  0
    0.5635    0.9760    0.0000 N   0  0  0  0  0  0  0  0  0  0  0  0
   -0.2615    0.9760    0.0000 C   0  0  0  0  0  0  0  0  0  0  0  0
   -0.8449    0.3926    0.0000 O   0  0  0  0  0  0  0  0  0  0  0  0
   -0.2615    1.8010    0.0000 C   0  0  0  0  0  0  0  0  0  0  0  0
   -0.8449    2.3843    0.0000 N   0  0  0  0  0  0  0  0  0  0  0  0
   -0.6314    3.1812    0.0000 C   0  0  0  0  0  0  0  0  0  0  0  0
    0.1655    3.3948    0.0000 O   0  0  0  0  0  0  0  0  0  0  0  0
   -1.2147    3.7646    0.0000 C   0  0  0  0  0  0  0  0  0  0  0  0
   -1.0012    4.5615    0.0000 N   0  0  0  0  0  0  0  0  0  0  0  0
   -1.5204    5.2026    0.0000 N   0  0  0  0  0  0  0  0  0  0  0  0
   -1.0711    5.8945    0.0000 N   0  0  0  0  0  0  0  0  0  0  0  0
   -0.2742    5.6810    0.0000 N   0  0  0  0  0  0  0  0  0  0  0  0
   -0.2310    4.8571    0.0000 C   0  0  0  0  0  0  0  0  0  0  0  0
    0.5635    1.8010    0.0000 C   0  0  0  0  0  0  0  0  0  0  0  0
    1.2780    2.2135    0.0000 S   0  0  0  0  0  0  0  0  0  0  0  0
    1.9924    1.8010    0.0000 C   0  0  0  0  0  0  0  0  0  0  0  0
    4.8895    0.8990    0.0000 N   0  0  0  0  0  0  0  0  0  0  0  0
    5.4415    0.2859    0.0000 N   0  0  0  0  0  0  0  0  0  0  0  0
    5.0290   -0.4285    0.0000 C   0  0  0  0  0  0  0  0  0  0  0  0
    0.5635    2.6260    0.0000 H   0  0  0  0  0  0  0  0  0  0  0  0
  1  2  1  0
  2  3  1  0
  3  4  1  0
  4  5  1  0
  5  6  2  0
  6  7  1  0
  7  8  2  0
  7  9  1  0
  6 10  1  0
 10 11  1  0
 11 12  2  0
 11 13  1  0
 13 14  1  1
 14 15  1  0
 15 16  2  0
 15 17  1  0
 17 18  1  0
 18 19  1  0
 19 20  2  0
 20 21  1  0
 21 22  2  0
 18 22  1  0
 13 23  1  0
 10 23  1  0
 23 24  1  0
 24 25  1  0
  5 25  1  0
  2 26  2  0
 26 27  1  0
 27 28  2  0
  1 28  1  0
 23 29  1  6
M  END

> <chembl_id>
CHEMBL1697829

> <chembl_pref_name>
CEFTEZOLE

$$$$

     RDKit          2D

 37 40  0  0  1  0  0  0  0  0999 V2000
    1.6709    1.7064    0.0000 S   0  0  0  0  0  0  0  0  0  0  0  0
   -1.6187    0.3689    0.0000 S   0  0  0  0  0  0  0  0  0  0  0  0
   -0.4519    3.5273    0.0000 O   0  0  0  0  0  0  0  0  0  0  0  0
    2.3854    4.5939    0.0000 O   0  0  0  0  0  0  0  0  0  0  0  0
    0.9564    4.5939    0.0000 O   0  0  0  0  0  0  0  0  0  0  0  0
   -1.4624    2.5460    0.0000 O   0  0  0  0  0  0  0  0  0  0  0  0
   -2.4156    0.1553    0.0000 O   0  0  0  0  0  0  0  0  0  0  0  0
   -0.8218    0.5824    0.0000 O   0  0  0  0  0  0  0  0  0  0  0  0
   -1.4051   -0.4280    0.0000 O   0  0  0  0  0  0  0  0  0  0  0  0
    6.6722    2.1189    0.0000 O   0  0  0  0  0  0  0  0  0  0  0  0
    0.9564    2.9439    0.0000 N   0  0  0  0  0  0  0  0  0  0  0  0
   -0.4519    1.5356    0.0000 N   0  0  0  0  0  0  0  0  0  0  0  0
    3.8143    2.9439    0.0000 N   0  0  0  0  0  0  0  0  0  0  0  0
    5.9577    0.8814    0.0000 N   0  0  0  0  0  0  0  0  0  0  0  0
    0.9564    2.1189    0.0000 C   0  0  0  0  0  0  0  0  0  0  0  0
    0.1314    2.1189    0.0000 C   0  0  0  0  0  0  0  0  0  0  0  0
    0.1314    2.9439    0.0000 C   0  0  0  0  0  0  0  0  0  0  0  0
    1.6709    3.3564    0.0000 C   0  0  0  0  0  0  0  0  0  0  0  0
    2.3854    2.9439    0.0000 C   0  0  0  0  0  0  0  0  0  0  0  0
    2.3854    2.1189    0.0000 C   0  0  0  0  0  0  0  0  0  0  0  0
    1.6709    4.1814    0.0000 C   0  0  0  0  0  0  0  0  0  0  0  0
   -1.2488    1.7491    0.0000 C   0  0  0  0  0  0  0  0  0  0  0  0
   -1.8322    1.1657    0.0000 C   0  0  0  0  0  0  0  0  0  0  0  0
    3.0998    3.3564    0.0000 C   0  0  0  0  0  0  0  0  0  0  0  0
   -2.6291    1.3793    0.0000 C   0  0  0  0  0  0  0  0  0  0  0  0
   -3.2124    0.7959    0.0000 C   0  0  0  0  0  0  0  0  0  0  0  0
   -2.8426    2.1762    0.0000 C   0  0  0  0  0  0  0  0  0  0  0  0
    4.5288    3.3564    0.0000 C   0  0  0  0  0  0  0  0  0  0  0  0
    3.8143    2.1189    0.0000 C   0  0  0  0  0  0  0  0  0  0  0  0
    5.2432    2.1189    0.0000 C   0  0  0  0  0  0  0  0  0  0  0  0
   -4.0093    1.0094    0.0000 C   0  0  0  0  0  0  0  0  0  0  0  0
   -3.6395    2.3897    0.0000 C   0  0  0  0  0  0  0  0  0  0  0  0
    5.2432    2.9439    0.0000 C   0  0  0  0  0  0  0  0  0  0  0  0
    4.5288    1.7064    0.0000 C   0  0  0  0  0  0  0  0  0  0  0  0
   -4.2229    1.8063    0.0000 C   0  0  0  0  0  0  0  0  0  0  0  0
    5.9577    1.7064    0.0000 C   0  0  0  0  0  0  0  0  0  0  0  0
    0.6976    1.1530    0.0000 H   0  0  0  0  0  0  0  0  0  0  0  0
  1 15  1  0
  1 20  1  0
  2  7  1  0
  2  8  2  0
  2  9  2  0
 23  2  1  0
  3 17  2  0
  4 21  1  0
  5 21  2  0
  6 22  2  0
 10 36  2  0
 15 11  1  0
 11 17  1  0
 11 18  1  0
 16 12  1  6
 12 22  1  0
 13 24  1  0
 13 28  2  0
 13 29  1  0
 14 36  1  0
 15 16  1  0
 16 17  1  0
 18 19  2  0
 18 21  1  0
 19 20  1  0
 19 24  1  0
 23 22  1  6
 23 25  1  0
 25 26  2  0
 25 27  1  0
 26 31  1  0
 27 32  2  0
 28 33  1  0
 29 34  2  0
 30 33  2  0
 30 34  1  0
 30 36  1  0
 31 35  2  0
 32 35  1  0
 15 37  1  1
M  CHG  2   7  -1  13   1
M  END

> <chembl_id>
CHEMBL3351077

> <chembl_pref_name>
CEFSULODIN

$$$$

     RDKit          2D

 28 30  0  0  0  0  0  0  0  0999 V2000
    0.0124  -18.5672    0.0000 O   0  0  0  0  0  0  0  0  0  0  0  0
    0.8337  -18.5714    0.0000 S   0  0  0  0  0  0  0  0  0  0  0  0
    0.4267  -17.8579    0.0000 O   0  0  0  0  0  0  0  0  0  0  0  0
    5.7494  -19.8697    0.0000 C   0  0  0  0  0  0  0  0  0  0  0  0
    5.0358  -20.2887    0.0000 C   0  0  0  0  0  0  0  0  0  0  0  0
    5.7539  -20.6956    0.0000 C   0  0  0  0  0  0  0  0  0  0  0  0
    2.9449  -19.8755    0.0000 C   0  0  0  0  0  0  0  0  0  0  0  0
    2.9421  -20.6999    0.0000 C   0  0  0  0  0  0  0  0  0  0  0  0
    2.2422  -19.4435    0.0000 N   0  0  0  0  0  0  0  0  0  0  0  0
    2.3546  -21.2824    0.0000 O   0  0  0  0  0  0  0  0  0  0  0  0
    3.7789  -19.0567    0.0000 H   0  0  0  0  0  0  0  0  0  0  0  0
    1.5147  -19.8325    0.0000 C   0  0  0  0  0  0  0  0  0  0  0  0
    0.8119  -19.4003    0.0000 C   0  0  0  0  0  0  0  0  0  0  0  0
    1.4898  -20.6574    0.0000 O   0  0  0  0  0  0  0  0  0  0  0  0
    0.0844  -19.7893    0.0000 C   0  0  0  0  0  0  0  0  0  0  0  0
   -0.6114  -19.3526    0.0000 C   0  0  0  0  0  0  0  0  0  0  0  0
   -1.3384  -19.7409    0.0000 C   0  0  0  0  0  0  0  0  0  0  0  0
   -1.3638  -20.5668    0.0000 C   0  0  0  0  0  0  0  0  0  0  0  0
   -0.6561  -21.0030    0.0000 C   0  0  0  0  0  0  0  0  0  0  0  0
    0.0639  -20.6080    0.0000 C   0  0  0  0  0  0  0  0  0  0  0  0
    3.7710  -19.8781    0.0000 C   0  0  0  0  0  0  0  0  0  0  0  0
    3.7719  -20.7023    0.0000 N   0  0  0  0  0  0  0  0  0  0  0  0
    4.5569  -20.9588    0.0000 C   0  0  0  0  0  0  0  0  0  0  0  0
    4.5550  -19.6238    0.0000 S   0  0  0  0  0  0  0  0  0  0  0  0
    4.9179  -21.7007    0.0000 C   0  0  0  0  0  0  0  0  0  0  0  0
    4.4596  -22.3863    0.0000 O   0  0  0  0  0  0  0  0  0  0  0  0
    5.7415  -21.7568    0.0000 O   0  0  0  0  0  0  0  0  0  0  0  0
    1.5644  -18.1822    0.0000 O   0  0  0  0  0  0  0  0  0  0  0  0
  7  8  1  0
 13 15  1  0
  8 22  1  0
 15 16  2  0
 16 17  1  0
  7  9  1  1
 17 18  2  0
  2  1  2  0
 18 19  1  0
  8 10  2  0
 19 20  2  0
 20 15  1  0
 21 22  1  0
  3  2  2  0
 21 11  1  6
  5  4  1  0
  9 12  1  0
 22 23  1  0
 23  5  1  0
  5 24  1  0
 24 21  1  0
  6  5  1  0
 23 25  1  6
 12 13  1  0
 25 26  2  0
 21  7  1  0
 25 27  1  0
 13  2  1  0
 12 14  2  0
  2 28  1  0
M  END

> <chembl_id>
CHEMBL1256734

> <chembl_pref_name>
SULBENICILLIN

$$$$

     RDKit          2D

 21 23  0  0  0  0  0  0  0  0999 V2000
    7.6417   -6.7917    0.0000 C   0  0  0  0  0  0  0  0  0  0  0  0
    5.5042   -5.5542    0.0000 N   0  0  0  0  0  0  0  0  0  0  0  0
    6.2167   -5.9667    0.0000 C   0  0  0  0  0  0  0  0  0  0  0  0
    6.2167   -6.7917    0.0000 C   0  0  0  0  0  0  0  0  0  0  0  0
    6.9292   -7.2000    0.0000 C   0  0  0  0  0  0  0  0  0  0  0  0
    4.7917   -5.9667    0.0000 C   0  0  0  0  0  0  0  0  0  0  0  0
    6.9292   -5.5542    0.0000 N   0  0  0  0  0  0  0  0  0  0  0  0
    7.6417   -5.9667    0.0000 C   0  0  0  0  0  0  0  0  0  0  0  0
    4.7917   -6.7917    0.0000 N   0  0  0  0  0  0  0  0  0  0  0  0
    8.3625   -7.2042    0.0000 C   0  0  0  0  0  0  0  0  0  0  0  0
    4.0750   -5.5500    0.0000 N   0  0  0  0  0  0  0  0  0  0  0  0
    5.5042   -7.2000    0.0000 C   0  0  0  0  0  0  0  0  0  0  0  0
    6.9292   -8.0167    0.0000 O   0  0  0  0  0  0  0  0  0  0  0  0
    9.0792   -6.8000    0.0000 O   0  0  0  0  0  0  0  0  0  0  0  0
    8.3625   -8.0375    0.0000 O   0  0  0  0  0  0  0  0  0  0  0  0
    6.9292   -4.7375    0.0000 C   0  0  0  0  0  0  0  0  0  0  0  0
    3.3417   -5.9250    0.0000 C   0  0  0  0  0  0  0  0  0  0  0  0
    3.9500   -4.7375    0.0000 C   0  0  0  0  0  0  0  0  0  0  0  0
    6.2167   -4.3167    0.0000 C   0  0  0  0  0  0  0  0  0  0  0  0
    3.1417   -4.6042    0.0000 C   0  0  0  0  0  0  0  0  0  0  0  0
    2.7542   -5.3292    0.0000 C   0  0  0  0  0  0  0  0  0  0  0  0
  2  3  1  0
  3  7  1  0
  4  5  1  0
  5  1  1  0
  6  2  2  0
  7  8  1  0
  8  1  2  0
  9 12  2  0
 10  1  1  0
 11  6  1  0
 12  4  1  0
 13  5  2  0
 14 10  2  0
 15 10  1  0
 16  7  1  0
 17 11  1  0
 18 11  1  0
 19 16  1  0
 20 18  1  0
 21 17  1  0
  4  3  2  0
  9  6  1  0
 21 20  1  0
M  END

> <chembl_id>
CHEMBL311350

> <chembl_pref_name>
PIROMIDIC ACID

$$$$

     RDKit          2D

 23 25  0  0  0  0  0  0  0  0999 V2000
   -2.7640   -5.2901    0.0000 C   0  0  0  0  0  0  0  0  0  0  0  0
   -1.3361   -5.2901    0.0000 C   0  0  0  0  0  0  0  0  0  0  0  0
   -1.3361   -6.1169    0.0000 C   0  0  0  0  0  0  0  0  0  0  0  0
   -0.6221   -6.5302    0.0000 N   0  0  0  0  0  0  0  0  0  0  0  0
   -2.0500   -4.8768    0.0000 C   0  0  0  0  0  0  0  0  0  0  0  0
   -2.0500   -6.5302    0.0000 N   0  0  0  0  0  0  0  0  0  0  0  0
   -2.7640   -6.1169    0.0000 C   0  0  0  0  0  0  0  0  0  0  0  0
    0.1002   -6.1169    0.0000 C   0  0  0  0  0  0  0  0  0  0  0  0
   -0.6221   -4.8768    0.0000 C   0  0  0  0  0  0  0  0  0  0  0  0
   -3.4780   -4.8768    0.0000 C   0  0  0  0  0  0  0  0  0  0  0  0
    0.1002   -5.2901    0.0000 C   0  0  0  0  0  0  0  0  0  0  0  0
    0.8184   -6.5302    0.0000 N   0  0  0  0  0  0  0  0  0  0  0  0
   -2.0500   -4.0501    0.0000 O   0  0  0  0  0  0  0  0  0  0  0  0
    2.2463   -7.3569    0.0000 N   0  0  0  0  0  0  0  0  0  0  0  0
   -3.4780   -4.0501    0.0000 O   0  0  0  0  0  0  0  0  0  0  0  0
    0.8184   -4.8768    0.0000 F   0  0  0  0  0  0  0  0  0  0  0  0
   -4.1962   -5.2901    0.0000 O   0  0  0  0  0  0  0  0  0  0  0  0
   -2.0500   -7.3569    0.0000 C   0  0  0  0  0  0  0  0  0  0  0  0
    0.8184   -7.3569    0.0000 C   0  0  0  0  0  0  0  0  0  0  0  0
    1.5324   -6.1169    0.0000 C   0  0  0  0  0  0  0  0  0  0  0  0
    2.2463   -6.5302    0.0000 C   0  0  0  0  0  0  0  0  0  0  0  0
    1.5324   -7.7703    0.0000 C   0  0  0  0  0  0  0  0  0  0  0  0
   -2.7640   -7.7703    0.0000 C   0  0  0  0  0  0  0  0  0  0  0  0
  2  5  1  0
  3  6  1  0
  4  3  1  0
  5  1  1  0
  6  7  1  0
  7  1  2  0
  8  4  2  0
  9  2  1  0
 10  1  1  0
 11  9  2  0
 12  8  1  0
 13  5  2  0
 14 21  1  0
 15 10  2  0
 16 11  1  0
 17 10  1  0
 18  6  1  0
 19 12  1  0
 20 12  1  0
 21 20  1  0
 22 19  1  0
 23 18  1  0
  2  3  2  0
 11  8  1  0
 22 14  1  0
M  END

> <chembl_id>
CHEMBL826

> <chembl_pref_name>
ENOXACIN

$$$$

     RDKit          2D

 32 35  0  0  1  0  0  0  0  0999 V2000
    0.0000   -2.1556    0.0000 Cl  0  0  0  0  0  0  0  0  0  0  0  0
    6.7522   -1.6960    0.0000 S   0  0  0  0  0  0  0  0  0  0  0  0
    2.4330   -0.7053    0.0000 F   0  0  0  0  0  0  0  0  0  0  0  0
    4.5411   -3.3602    0.0000 O   0  0  0  0  0  0  0  0  0  0  0  0
    6.4827   -4.6124    0.0000 O   0  0  0  0  0  0  0  0  0  0  0  0
    7.9251   -4.1210    0.0000 O   0  0  0  0  0  0  0  0  0  0  0  0
    3.3840   -0.8242    0.0000 O   0  0  0  0  0  0  0  0  0  0  0  0
    2.3300   -3.0353    0.0000 O   0  0  0  0  0  0  0  0  0  0  0  0
    5.9596   -2.8292    0.0000 N   0  0  0  0  0  0  0  0  0  0  0  0
    4.4618   -1.5295    0.0000 N   0  0  0  0  0  0  0  0  0  0  0  0
    1.6643   -2.5836    0.0000 N   0  0  0  0  0  0  0  0  0  0  0  0
    5.9596   -1.9416    0.0000 C   0  0  0  0  0  0  0  0  0  0  0  0
    5.0642   -1.9416    0.0000 C   0  0  0  0  0  0  0  0  0  0  0  0
    5.0642   -2.8292    0.0000 C   0  0  0  0  0  0  0  0  0  0  0  0
    6.7522   -3.0908    0.0000 C   0  0  0  0  0  0  0  0  0  0  0  0
    7.2594   -2.3855    0.0000 C   0  0  0  0  0  0  0  0  0  0  0  0
    7.0612   -3.9467    0.0000 C   0  0  0  0  0  0  0  0  0  0  0  0
    3.6693   -1.5295    0.0000 C   0  0  0  0  0  0  0  0  0  0  0  0
    7.5764   -1.5692    0.0000 C   0  0  0  0  0  0  0  0  0  0  0  0
    7.9251   -2.9560    0.0000 C   0  0  0  0  0  0  0  0  0  0  0  0
    2.9798   -1.9416    0.0000 C   0  0  0  0  0  0  0  0  0  0  0  0
    1.6643   -1.9416    0.0000 C   0  0  0  0  0  0  0  0  0  0  0  0
    2.9798   -2.5836    0.0000 C   0  0  0  0  0  0  0  0  0  0  0  0
    1.2205   -1.4107    0.0000 C   0  0  0  0  0  0  0  0  0  0  0  0
    0.4041   -1.4107    0.0000 C   0  0  0  0  0  0  0  0  0  0  0  0
    1.6326   -0.7053    0.0000 C   0  0  0  0  0  0  0  0  0  0  0  0
    3.5425   -2.9957    0.0000 C   0  0  0  0  0  0  0  0  0  0  0  0
    0.0000   -0.7212    0.0000 C   0  0  0  0  0  0  0  0  0  0  0  0
    1.2046    0.0000    0.0000 C   0  0  0  0  0  0  0  0  0  0  0  0
    0.4041    0.0000    0.0000 C   0  0  0  0  0  0  0  0  0  0  0  0
    5.9438   -1.1729    0.0000 H   0  0  0  0  0  0  0  0  0  0  0  0
    5.0404   -1.1333    0.0000 H   0  0  0  0  0  0  0  0  0  0  0  0
  1 25  1  0
 12  2  1  1
  2 16  1  0
  3 26  1  0
  4 14  2  0
  5 17  1  0
  6 17  2  0
  7 18  2  0
  8 11  1  0
  8 23  1  0
  9 12  1  0
  9 14  1  0
  9 15  1  0
 13 10  1  1
 10 18  1  0
 11 22  2  0
 12 13  1  0
 12 31  1  6
 13 14  1  0
 13 32  1  6
 15 16  1  0
 15 17  1  6
 16 19  1  0
 16 20  1  0
 18 21  1  0
 21 22  1  0
 21 23  2  0
 22 24  1  0
 23 27  1  0
 24 25  1  0
 24 26  2  0
 25 28  2  0
 26 29  1  0
 28 30  1  0
 29 30  2  0
M  END

> <chembl_id>
CHEMBL222645

> <chembl_pref_name>
FLOXACILLIN

$$$$

     RDKit          2D

 28 31  0  0  0  0  0  0  0  0999 V2000
    0.7125   -1.0292    0.0000 C   0  0  0  0  0  0  0  0  0  0  0  0
    1.4250    0.2083    0.0000 N   0  0  0  0  0  0  0  0  0  0  0  0
    2.1417   -1.0292    0.0000 C   0  0  0  0  0  0  0  0  0  0  0  0
    0.7125   -0.2042    0.0000 C   0  0  0  0  0  0  0  0  0  0  0  0
    1.4250   -1.4417    0.0000 C   0  0  0  0  0  0  0  0  0  0  0  0
   -0.7167   -0.2042    0.0000 C   0  0  0  0  0  0  0  0  0  0  0  0
    0.0000    0.2083    0.0000 C   0  0  0  0  0  0  0  0  0  0  0  0
   -0.7167   -1.0292    0.0000 C   0  0  0  0  0  0  0  0  0  0  0  0
    2.1417   -0.2042    0.0000 C   0  0  0  0  0  0  0  0  0  0  0  0
   -1.4292    0.2083    0.0000 N   0  0  0  0  0  0  0  0  0  0  0  0
    0.0000   -1.4417    0.0000 C   0  0  0  0  0  0  0  0  0  0  0  0
    1.4250    1.0333    0.0000 C   0  0  0  0  0  0  0  0  0  0  0  0
    2.8542   -1.4417    0.0000 C   0  0  0  0  0  0  0  0  0  0  0  0
    1.0125    1.7458    0.0000 C   0  0  0  0  0  0  0  0  0  0  0  0
    1.8375    1.7458    0.0000 C   0  0  0  0  0  0  0  0  0  0  0  0
   -1.4292    1.0333    0.0000 C   0  0  0  0  0  0  0  0  0  0  0  0
   -2.1458   -0.2042    0.0000 C   0  0  0  0  0  0  0  0  0  0  0  0
    1.4250   -2.2667    0.0000 O   0  0  0  0  0  0  0  0  0  0  0  0
   -2.8583    0.2083    0.0000 C   0  0  0  0  0  0  0  0  0  0  0  0
   -2.1458    1.4458    0.0000 C   0  0  0  0  0  0  0  0  0  0  0  0
    0.0000    1.0333    0.0000 F   0  0  0  0  0  0  0  0  0  0  0  0
   -1.4292   -1.4417    0.0000 F   0  0  0  0  0  0  0  0  0  0  0  0
    2.8542   -2.2667    0.0000 O   0  0  0  0  0  0  0  0  0  0  0  0
    0.0000   -2.2667    0.0000 N   0  0  0  0  0  0  0  0  0  0  0  0
    3.5708   -1.0292    0.0000 O   0  0  0  0  0  0  0  0  0  0  0  0
   -2.1458    2.2708    0.0000 C   0  0  0  0  0  0  0  0  0  0  0  0
   -3.5750   -0.2042    0.0000 C   0  0  0  0  0  0  0  0  0  0  0  0
   -2.8583    1.0333    0.0000 N   0  0  0  0  0  0  0  0  0  0  0  0
  2  4  1  0
  3  5  1  0
  4  1  2  0
  5  1  1  0
  6  7  2  0
  7  4  1  0
  8 11  2  0
  9  2  1  0
 10  6  1  0
 11  1  1  0
 12  2  1  0
 28 20  1  0
 13  3  1  0
 14 12  1  0
 15 12  1  0
 16 10  1  0
 17 10  1  0
 18  5  2  0
 19 17  1  0
 20 16  1  0
 21  7  1  0
 22  8  1  0
 23 13  2  0
 24 11  1  0
 25 13  1  0
 20 26  1  1
 19 27  1  1
  6  8  1  0
  3  9  2  0
 15 14  1  0
 28 19  1  0
M  END

> <chembl_id>
CHEMBL850

> <chembl_pref_name>
SPARFLOXACIN

$$$$

     RDKit          2D

123132  0  0  0  0  0  0  0  0999 V2000
   -8.0143    3.3000    0.0000 C   0  0  0  0  0  0  0  0  0  0  0  0
   -8.4268    4.0145    0.0000 C   0  0  0  0  0  0  0  0  0  0  0  0
   -9.2518    4.0145    0.0000 C   0  0  0  0  0  0  0  0  0  0  0  0
   -9.6643    3.3000    0.0000 O   0  0  0  0  0  0  0  0  0  0  0  0
   -9.2518    2.5855    0.0000 C   0  0  0  0  0  0  0  0  0  0  0  0
   -8.4268    2.5855    0.0000 C   0  0  0  0  0  0  0  0  0  0  0  0
   -9.6643    1.8711    0.0000 O   0  0  0  0  0  0  0  0  0  0  0  0
   -9.6643    4.7289    0.0000 C   0  0  0  0  0  0  0  0  0  0  0  0
   -8.0143    4.7289    0.0000 O   0  0  0  0  0  0  0  0  0  0  0  0
   -7.6018    4.0145    0.0000 N   0  0  0  0  0  0  0  0  0  0  0  0
   -7.8007    2.5031    0.0000 C   0  0  0  0  0  0  0  0  0  0  0  0
   -6.7768    4.0145    0.0000 C   0  0  0  0  0  0  0  0  0  0  0  0
   -6.3643    4.7289    0.0000 C   0  0  0  0  0  0  0  0  0  0  0  0
   -5.5393    4.7289    0.0000 N   0  0  0  0  0  0  0  0  0  0  0  0
   -5.1268    5.4434    0.0000 C   0  0  0  0  0  0  0  0  0  0  0  0
   -4.3018    5.4434    0.0000 C   0  0  0  0  0  0  0  0  0  0  0  0
   -3.8893    6.1579    0.0000 C   0  0  0  0  0  0  0  0  0  0  0  0
   -3.0643    6.1579    0.0000 C   0  0  0  0  0  0  0  0  0  0  0  0
   -2.6518    6.8724    0.0000 C   0  0  0  0  0  0  0  0  0  0  0  0
   -1.8268    6.8724    0.0000 C   0  0  0  0  0  0  0  0  0  0  0  0
   -1.4143    7.5868    0.0000 C   0  0  0  0  0  0  0  0  0  0  0  0
   -0.5893    7.5868    0.0000 C   0  0  0  0  0  0  0  0  0  0  0  0
   -0.1768    8.3013    0.0000 C   0  0  0  0  0  0  0  0  0  0  0  0
    0.6482    8.3013    0.0000 C   0  0  0  0  0  0  0  0  0  0  0  0
   -6.6000    0.8545    0.0000 C   0  0  0  0  0  0  0  0  0  0  0  0
   -7.0125    1.5689    0.0000 C   0  0  0  0  0  0  0  0  0  0  0  0
   -7.8375    1.5689    0.0000 O   0  0  0  0  0  0  0  0  0  0  0  0
   -8.2500    0.8545    0.0000 C   0  0  0  0  0  0  0  0  0  0  0  0
   -7.8375    0.1400    0.0000 C   0  0  0  0  0  0  0  0  0  0  0  0
   -7.0125    0.1400    0.0000 C   0  0  0  0  0  0  0  0  0  0  0  0
   -9.0161   -0.0589    0.0000 O   0  0  0  0  0  0  0  0  0  0  0  0
   -9.0161   -0.8839    0.0000 C   0  0  0  0  0  0  0  0  0  0  0  0
   -9.7306   -1.2964    0.0000 C   0  0  0  0  0  0  0  0  0  0  0  0
   -9.7306   -2.1214    0.0000 C   0  0  0  0  0  0  0  0  0  0  0  0
   -9.0161   -2.5339    0.0000 C   0  0  0  0  0  0  0  0  0  0  0  0
   -8.3016   -2.1214    0.0000 C   0  0  0  0  0  0  0  0  0  0  0  0
   -8.3016   -1.2964    0.0000 C   0  0  0  0  0  0  0  0  0  0  0  0
   -6.6000    2.2834    0.0000 C   0  0  0  0  0  0  0  0  0  0  0  0
   -7.0125    2.9979    0.0000 O   0  0  0  0  0  0  0  0  0  0  0  0
   -5.7750    0.8545    0.0000 O   0  0  0  0  0  0  0  0  0  0  0  0
   -6.6000   -0.5745    0.0000 O   0  0  0  0  0  0  0  0  0  0  0  0
   -7.5871   -0.8839    0.0000 O   0  0  0  0  0  0  0  0  0  0  0  0
   -6.8726   -1.2964    0.0000 C   0  0  0  0  0  0  0  0  0  0  0  0
  -10.4450   -0.8839    0.0000 O   0  0  0  0  0  0  0  0  0  0  0  0
  -11.1595   -1.2964    0.0000 C   0  0  0  0  0  0  0  0  0  0  0  0
   -9.0161   -3.3589    0.0000 C   0  0  0  0  0  0  0  0  0  0  0  0
   -8.3016   -3.7714    0.0000 N   0  0  0  0  0  0  0  0  0  0  0  0
   -9.7305   -3.7714    0.0000 C   0  0  0  0  0  0  0  0  0  0  0  0
   -7.5871   -3.3589    0.0000 C   0  0  0  0  0  0  0  0  0  0  0  0
   -6.8727   -3.7714    0.0000 C   0  0  0  0  0  0  0  0  0  0  0  0
   -7.5871   -2.5339    0.0000 O   0  0  0  0  0  0  0  0  0  0  0  0
   -6.1582   -3.3589    0.0000 N   0  0  0  0  0  0  0  0  0  0  0  0
   -6.8727   -4.5964    0.0000 C   0  0  0  0  0  0  0  0  0  0  0  0
   -5.4437   -3.7714    0.0000 C   0  0  0  0  0  0  0  0  0  0  0  0
   -4.7292   -3.3589    0.0000 C   0  0  0  0  0  0  0  0  0  0  0  0
   -5.4437   -4.5964    0.0000 O   0  0  0  0  0  0  0  0  0  0  0  0
   -4.0148   -3.7714    0.0000 N   0  0  0  0  0  0  0  0  0  0  0  0
   -4.7292   -2.5339    0.0000 C   0  0  0  0  0  0  0  0  0  0  0  0
   -6.8726   -2.1214    0.0000 C   0  0  0  0  0  0  0  0  0  0  0  0
   -6.1582   -2.5339    0.0000 C   0  0  0  0  0  0  0  0  0  0  0  0
   -5.4437   -2.1214    0.0000 C   0  0  0  0  0  0  0  0  0  0  0  0
   -5.4437   -1.2964    0.0000 C   0  0  0  0  0  0  0  0  0  0  0  0
   -6.1581   -0.8839    0.0000 C   0  0  0  0  0  0  0  0  0  0  0  0
   -4.0148   -2.1214    0.0000 O   0  0  0  0  0  0  0  0  0  0  0  0
   -3.3003   -3.3589    0.0000 C   0  0  0  0  0  0  0  0  0  0  0  0
   -2.5858   -3.7714    0.0000 C   0  0  0  0  0  0  0  0  0  0  0  0
   -3.3003   -2.5339    0.0000 O   0  0  0  0  0  0  0  0  0  0  0  0
   -1.8714   -3.3589    0.0000 N   0  0  0  0  0  0  0  0  0  0  0  0
   -2.5858   -4.5964    0.0000 C   0  0  0  0  0  0  0  0  0  0  0  0
   -1.1569   -3.7714    0.0000 C   0  0  0  0  0  0  0  0  0  0  0  0
   -1.8714   -5.0089    0.0000 C   0  0  0  0  0  0  0  0  0  0  0  0
   -1.8714   -5.8339    0.0000 C   0  0  0  0  0  0  0  0  0  0  0  0
   -1.1569   -4.5964    0.0000 C   0  0  0  0  0  0  0  0  0  0  0  0
   -7.5871   -5.0089    0.0000 C   0  0  0  0  0  0  0  0  0  0  0  0
   -7.5871   -5.8339    0.0000 O   0  0  0  0  0  0  0  0  0  0  0  0
   -8.3016   -4.5964    0.0000 N   0  0  0  0  0  0  0  0  0  0  0  0
   -9.7305   -4.5964    0.0000 O   0  0  0  0  0  0  0  0  0  0  0  0
  -10.4450   -3.3589    0.0000 N   0  0  0  0  0  0  0  0  0  0  0  0
  -11.1595   -3.7714    0.0000 C   0  0  0  0  0  0  0  0  0  0  0  0
  -11.8740   -3.3589    0.0000 C   0  0  0  0  0  0  0  0  0  0  0  0
  -11.1595   -4.5964    0.0000 C   0  0  0  0  0  0  0  0  0  0  0  0
  -12.5884   -3.7714    0.0000 N   0  0  0  0  0  0  0  0  0  0  0  0
  -11.8740   -2.5339    0.0000 O   0  0  0  0  0  0  0  0  0  0  0  0
  -13.3029   -3.3589    0.0000 C   0  0  0  0  0  0  0  0  0  0  0  0
  -14.0174   -3.7714    0.0000 C   0  0  0  0  0  0  0  0  0  0  0  0
  -14.7318   -3.3589    0.0000 O   0  0  0  0  0  0  0  0  0  0  0  0
  -14.0174   -4.5964    0.0000 N   0  0  0  0  0  0  0  0  0  0  0  0
  -13.3029   -2.5339    0.0000 C   0  0  0  0  0  0  0  0  0  0  0  0
  -11.5720   -0.5819    0.0000 C   0  0  0  0  0  0  0  0  0  0  0  0
  -12.3970   -0.5819    0.0000 C   0  0  0  0  0  0  0  0  0  0  0  0
  -12.8095   -1.2964    0.0000 C   0  0  0  0  0  0  0  0  0  0  0  0
  -12.3970   -2.0109    0.0000 C   0  0  0  0  0  0  0  0  0  0  0  0
  -11.5720   -2.0109    0.0000 C   0  0  0  0  0  0  0  0  0  0  0  0
  -14.1131   -2.3784    0.0000 O   0  0  0  0  0  0  0  0  0  0  0  0
  -13.3029   -4.1839    0.0000 H   0  0  0  0  0  0  0  0  0  0  0  0
  -11.8740   -5.0089    0.0000 C   0  0  0  0  0  0  0  0  0  0  0  0
  -11.8740   -5.8339    0.0000 C   0  0  0  0  0  0  0  0  0  0  0  0
  -11.1595   -6.2464    0.0000 C   0  0  0  0  0  0  0  0  0  0  0  0
  -10.4450   -5.8339    0.0000 C   0  0  0  0  0  0  0  0  0  0  0  0
  -10.4450   -5.0089    0.0000 C   0  0  0  0  0  0  0  0  0  0  0  0
  -12.4573   -6.4173    0.0000 C   0  0  0  0  0  0  0  0  0  0  0  0
  -13.2543   -6.2037    0.0000 C   0  0  0  0  0  0  0  0  0  0  0  0
  -13.8376   -6.7871    0.0000 C   0  0  0  0  0  0  0  0  0  0  0  0
  -13.6241   -7.5840    0.0000 C   0  0  0  0  0  0  0  0  0  0  0  0
  -12.8272   -7.7976    0.0000 C   0  0  0  0  0  0  0  0  0  0  0  0
  -12.2438   -7.2142    0.0000 C   0  0  0  0  0  0  0  0  0  0  0  0
  -13.9687   -5.7912    0.0000 C   0  0  0  0  0  0  0  0  0  0  0  0
  -14.6747   -6.2182    0.0000 C   0  0  0  0  0  0  0  0  0  0  0  0
  -15.3974   -5.8203    0.0000 O   0  0  0  0  0  0  0  0  0  0  0  0
  -11.4469   -7.4277    0.0000 O   0  0  0  0  0  0  0  0  0  0  0  0
  -11.1595   -7.0714    0.0000 O   0  0  0  0  0  0  0  0  0  0  0  0
  -14.2074   -8.1674    0.0000 O   0  0  0  0  0  0  0  0  0  0  0  0
  -12.6136   -8.5945    0.0000 C   0  0  0  0  0  0  0  0  0  0  0  0
  -11.7886   -8.5945    0.0000 N   0  0  0  0  0  0  0  0  0  0  0  0
  -11.2053   -8.0111    0.0000 C   0  0  0  0  0  0  0  0  0  0  0  0
  -10.4084   -8.2246    0.0000 P   0  0  0  0  0  0  0  0  0  0  0  0
  -10.4084   -7.3996    0.0000 O   0  0  0  0  0  0  0  0  0  0  0  0
   -9.6115   -8.0111    0.0000 O   0  0  0  0  0  0  0  0  0  0  0  0
  -10.4084   -9.0496    0.0000 O   0  0  0  0  0  0  0  0  0  0  0  0
  -10.4450   -4.1839    0.0000 H   0  0  0  0  0  0  0  0  0  0  0  0
  -14.6579   -7.0430    0.0000 O   0  0  0  0  0  0  0  0  0  0  0  0
   -7.6976   -2.1214    0.0000 Cl  0  0  0  0  0  0  0  0  0  0  0  0
  -11.1595    0.1326    0.0000 Cl  0  0  0  0  0  0  0  0  0  0  0  0
  1  2  1  0
  6  1  1  0
  2  3  1  0
  3  4  1  0
  4  5  1  0
  5  6  1  0
  5  7  1  6
  3  8  1  1
  2  9  1  1
  1 10  1  0
  1 11  1  6
 10 12  1  0
 12 13  1  0
 13 14  1  0
 14 15  1  0
 15 16  1  0
 16 17  1  0
 17 18  1  0
 18 19  1  0
 19 20  1  0
 20 21  1  0
 21 22  1  0
 22 23  1  0
 23 24  1  0
 25 26  1  0
 30 25  1  0
 26 27  1  0
 27 28  1  0
 28 29  1  0
 29 30  1  0
 31 32  1  0
 33 34  1  0
 34 35  2  0
 35 36  1  0
 36 37  2  0
 32 33  2  0
 32 37  1  0
 29  7  1  1
 28 31  1  6
 26 38  1  6
 38 39  1  0
 25 40  1  1
 30 41  1  6
 37 42  1  0
 42 43  1  0
 33 44  1  0
 44 45  1  0
 35 46  1  0
 46 47  1  1
 46 48  1  0
 47 49  1  0
 49 50  1  0
 49 51  2  0
 50 52  1  0
 50 53  1  1
 52 54  1  0
 54 55  1  0
 54 56  2  0
 55 57  1  1
 55 58  1  0
 59 60  1  0
 60 61  2  0
 61 62  1  0
 62 63  2  0
 43 59  2  0
 43 63  1  0
 58 61  1  0
 58 64  1  1
 57 65  1  0
 65 66  1  0
 65 67  2  0
 66 68  1  6
 66 69  1  0
 68 70  1  0
 69 71  1  0
 71 72  1  0
 71 73  1  0
 53 74  1  0
 74 75  2  0
 74 76  1  0
 48 77  2  0
 48 78  1  0
 78 79  1  0
 79 80  1  0
 79 81  1  0
 80 82  1  0
 80 83  2  0
 82 84  1  0
 84 85  1  0
 85 86  2  0
 85 87  1  0
 84 88  1  0
 89 90  1  0
 90 91  2  0
 91 92  1  0
 92 93  2  0
 45 89  2  0
 45 93  1  0
 88 91  1  0
 88 94  1  6
 84 95  1  1
 96 97  1  0
 97 98  2  0
 98 99  1  0
 99100  2  0
 81 96  2  0
 81100  1  0
 97101  1  0
102103  2  0
103104  1  0
104105  2  0
105106  1  0
101102  1  0
101106  2  0
102107  1  0
107 87  1  0
108109  1  0
107108  1  1
106110  1  0
 98111  1  0
104112  1  0
105113  1  0
113114  1  0
114115  1  0
115116  1  0
116117  2  0
116118  1  0
116119  1  0
 79120  1  1
108121  2  0
 59122  1  0
 89123  1  0
M  END

> <chembl_id>
CHEMBL507870

> <chembl_pref_name>
TELAVANCIN

$$$$

     RDKit          2D

 30 33  0  0  0  0  0  0  0  0999 V2000
   16.6368    8.3676    0.0000 N   0  0  0  0  0  0  0  0  0  0  0  0
   22.7355    2.1129    0.0000 O   0  0  0  0  0  0  0  0  0  0  0  0
   19.1007    0.0000    0.0000 O   0  0  0  0  0  0  0  0  0  0  0  0
   21.5313    0.0087    0.0000 O   0  0  0  0  0  0  0  0  0  0  0  0
   11.3159    5.8803    0.0000 O   0  0  0  0  0  0  0  0  0  0  0  0
   19.0583    9.7920    0.0000 F   0  0  0  0  0  0  0  0  0  0  0  0
   21.5047    5.6012    0.0000 F   0  0  0  0  0  0  0  0  0  0  0  0
   14.2465    1.3911    0.0000 F   0  0  0  0  0  0  0  0  0  0  0  0
   16.6650    5.5939    0.0000 Cl  0  0  0  0  0  0  0  0  0  0  0  0
   20.2845    7.6974    0.0000 C   0  0  0  0  0  0  0  0  0  0  0  0
   16.6723    1.3896    0.0000 C   0  0  0  0  0  0  0  0  0  0  0  0
   20.3030    3.5118    0.0000 C   0  0  0  0  0  0  0  0  0  0  0  0
   12.8909    3.8289    0.0000 C   0  0  0  0  0  0  0  0  0  0  0  0
   13.8802    5.5433    0.0000 C   0  0  0  0  0  0  0  0  0  0  0  0
   17.8679    6.2822    0.0000 N   0  0  0  0  0  0  0  0  0  0  0  0
   21.5259    1.4084    0.0000 C   0  0  0  0  0  0  0  0  0  0  0  0
   17.8550    7.6784    0.0000 C   0  0  0  0  0  0  0  0  0  0  0  0
   19.0676    8.3922    0.0000 C   0  0  0  0  0  0  0  0  0  0  0  0
   20.2912    6.2990    0.0000 C   0  0  0  0  0  0  0  0  0  0  0  0
   15.4593    2.0899    0.0000 C   0  0  0  0  0  0  0  0  0  0  0  0
   20.3109    2.1035    0.0000 C   0  0  0  0  0  0  0  0  0  0  0  0
   16.6692    4.1942    0.0000 C   0  0  0  0  0  0  0  0  0  0  0  0
   19.0808    5.6024    0.0000 C   0  0  0  0  0  0  0  0  0  0  0  0
   15.4614    3.4938    0.0000 C   0  0  0  0  0  0  0  0  0  0  0  0
   19.0978    1.3997    0.0000 C   0  0  0  0  0  0  0  0  0  0  0  0
   17.8842    2.0971    0.0000 C   0  0  0  0  0  0  0  0  0  0  0  0
   17.8828    3.4999    0.0000 C   0  0  0  0  0  0  0  0  0  0  0  0
   12.5282    5.1808    0.0000 C   0  0  0  0  0  0  0  0  0  0  0  0
   14.2489    4.1933    0.0000 N   0  0  0  0  0  0  0  0  0  0  0  0
   19.0883    4.2026    0.0000 N   0  0  0  0  0  0  0  0  0  0  0  0
  1 17  1  0
  2 16  2  0
  3 25  2  0
  4 16  1  0
  5 28  1  0
  6 18  1  0
  7 19  1  0
  8 20  1  0
  9 22  1  0
 10 18  1  0
 10 19  2  0
 11 20  2  0
 11 26  1  0
 12 21  2  0
 12 30  1  0
 13 28  1  0
 13 29  1  0
 14 28  1  0
 14 29  1  0
 15 17  1  0
 15 23  2  0
 16 21  1  0
 17 18  2  0
 19 23  1  0
 20 24  1  0
 21 25  1  0
 22 24  2  0
 22 27  1  0
 23 30  1  0
 24 29  1  0
 25 26  1  0
 26 27  2  0
 27 30  1  0
M  END

> <chembl_id>
CHEMBL2105637

> <chembl_pref_name>
DELAFLOXACIN

$$$$

     RDKit          2D

 26 27  0  0  0  0  0  0  0  0999 V2000
    0.4000   -4.5042    0.0000 O   0  0  0  0  0  0  0  0  0  0  0  0
    2.5833   -2.8833    0.0000 N   0  0  0  0  0  0  0  0  0  0  0  0
    1.8750   -2.8875    0.0000 C   0  0  0  0  0  0  0  0  0  0  0  0
    1.8750   -2.1750    0.0000 C   0  0  0  0  0  0  0  0  0  0  0  0
    2.5875   -2.1750    0.0000 C   0  0  0  0  0  0  0  0  0  0  0  0
    3.1917   -3.2375    0.0000 C   0  0  0  0  0  0  0  0  0  0  0  0
    1.2500   -1.8167    0.0000 N   0  0  0  0  0  0  0  0  0  0  0  0
    3.2000   -1.8208    0.0000 S   0  0  0  0  0  0  0  0  0  0  0  0
    0.6292   -2.1708    0.0000 C   0  0  0  0  0  0  0  0  0  0  0  0
    3.8042   -2.8875    0.0000 C   0  0  0  0  0  0  0  0  0  0  0  0
    3.1875   -3.9500    0.0000 C   0  0  0  0  0  0  0  0  0  0  0  0
    0.0125   -1.8167    0.0000 C   0  0  0  0  0  0  0  0  0  0  0  0
    3.8125   -2.1792    0.0000 C   0  0  0  0  0  0  0  0  0  0  0  0
    1.3708   -3.3917    0.0000 O   0  0  0  0  0  0  0  0  0  0  0  0
    0.6292   -2.8833    0.0000 O   0  0  0  0  0  0  0  0  0  0  0  0
    2.5667   -4.3000    0.0000 O   0  0  0  0  0  0  0  0  0  0  0  0
   -0.6042   -2.1708    0.0000 C   0  0  0  0  0  0  0  0  0  0  0  0
    4.4167   -3.2500    0.0000 Cl  0  0  0  0  0  0  0  0  0  0  0  0
    0.0125   -1.1042    0.0000 N   0  0  0  0  0  0  0  0  0  0  0  0
    3.7958   -4.3083    0.0000 O   0  0  0  0  0  0  0  0  0  0  0  0
   -0.6042   -2.8750    0.0000 C   0  0  0  0  0  0  0  0  0  0  0  0
   -1.2208   -1.8125    0.0000 C   0  0  0  0  0  0  0  0  0  0  0  0
   -1.8333   -2.1667    0.0000 C   0  0  0  0  0  0  0  0  0  0  0  0
   -1.2167   -3.2375    0.0000 C   0  0  0  0  0  0  0  0  0  0  0  0
   -1.8333   -2.8792    0.0000 C   0  0  0  0  0  0  0  0  0  0  0  0
    2.5792   -1.4542    0.0000 H   0  0  0  0  0  0  0  0  0  0  0  0
  3  2  1  0
  4  3  1  0
  5  2  1  0
  6  2  1  0
  4  7  1  1
  8  5  1  0
  9  7  1  0
 10  6  2  0
 11  6  1  0
 12  9  1  0
 13 10  1  0
 14  3  2  0
 15  9  2  0
 16 11  2  0
 17 12  1  0
 18 10  1  0
 12 19  1  1
 20 11  1  0
 21 17  1  0
 22 17  2  0
 23 22  1  0
 24 21  2  0
 25 24  1  0
  5 26  1  6
  4  5  1  0
  8 13  1  0
 25 23  2  0
M  END

> <chembl_id>
CHEMBL1201018

> <chembl_pref_name>
CEFACLOR

$$$$

     RDKit          2D

 45 48  0  0  1  0  0  0  0  0999 V2000
   -1.4708   -0.0292    0.0000 C   0  0  0  0  0  0  0  0  0  0  0  0
   -2.4250   -0.0292    0.0000 C   0  0  0  0  0  0  0  0  0  0  0  0
   -0.5083   -0.0292    0.0000 C   0  0  0  0  0  0  0  0  0  0  0  0
   -1.9458    0.2458    0.0000 C   0  0  0  0  0  0  0  0  0  0  0  0
   -0.9875    0.2458    0.0000 C   0  0  0  0  0  0  0  0  0  0  0  0
   -1.4708   -0.5792    0.0000 C   0  0  0  0  0  0  0  0  0  0  0  0
   -0.5083   -0.5792    0.0000 C   0  0  0  0  0  0  0  0  0  0  0  0
   -2.9083    0.2458    0.0000 C   0  0  0  0  0  0  0  0  0  0  0  0
   -2.4250   -0.5792    0.0000 C   0  0  0  0  0  0  0  0  0  0  0  0
   -3.3875   -0.0292    0.0000 C   0  0  0  0  0  0  0  0  0  0  0  0
   -2.9083   -0.8542    0.0000 C   0  0  0  0  0  0  0  0  0  0  0  0
   -3.3875   -0.5792    0.0000 C   0  0  0  0  0  0  0  0  0  0  0  0
   -0.9875   -0.8542    0.0000 C   0  0  0  0  0  0  0  0  0  0  0  0
   -1.9458   -0.8542    0.0000 C   0  0  0  0  0  0  0  0  0  0  0  0
   -0.0208    0.2458    0.0000 C   0  0  0  0  0  0  0  0  0  0  0  0
    3.8250    0.8000    0.0000 C   0  0  0  0  0  0  0  0  0  0  0  0
   -0.9875    0.8000    0.0000 O   0  0  0  0  0  0  0  0  0  0  0  0
   -2.9083    0.8000    0.0000 O   0  0  0  0  0  0  0  0  0  0  0  0
   -0.9875   -1.4167    0.0000 N   0  0  0  0  0  0  0  0  0  0  0  0
   -0.0208    0.8000    0.0000 N   0  0  0  0  0  0  0  0  0  0  0  0
   -3.8625    0.2458    0.0000 C   0  0  0  0  0  0  0  0  0  0  0  0
   -1.4833    0.5833    0.0000 O   0  0  0  0  0  0  0  0  0  0  0  0
    0.4542   -0.0292    0.0000 O   0  0  0  0  0  0  0  0  0  0  0  0
   -1.9458    0.8000    0.0000 O   0  0  0  0  0  0  0  0  0  0  0  0
   -0.0208   -0.8667    0.0000 O   0  0  0  0  0  0  0  0  0  0  0  0
    3.8250    0.2458    0.0000 O   0  0  0  0  0  0  0  0  0  0  0  0
   -3.1000   -1.3917    0.0000 O   0  0  0  0  0  0  0  0  0  0  0  0
    3.3417    1.0833    0.0000 C   0  0  0  0  0  0  0  0  0  0  0  0
    0.4542    1.0833    0.0000 C   0  0  0  0  0  0  0  0  0  0  0  0
   -3.8625   -0.8542    0.0000 C   0  0  0  0  0  0  0  0  0  0  0  0
    0.9375    0.8000    0.0000 N   0  0  0  0  0  0  0  0  0  0  0  0
    4.3000    1.0833    0.0000 O   0  0  0  0  0  0  0  0  0  0  0  0
   -2.8083   -1.3750    0.0000 C   0  0  0  0  0  0  0  0  0  0  0  0
    3.3417    1.6333    0.0000 N   0  0  0  0  0  0  0  0  0  0  0  0
   -3.8625    0.8000    0.0000 O   0  0  0  0  0  0  0  0  0  0  0  0
   -4.3458   -0.5792    0.0000 C   0  0  0  0  0  0  0  0  0  0  0  0
   -4.3458   -0.0292    0.0000 C   0  0  0  0  0  0  0  0  0  0  0  0
   -1.4708   -1.6917    0.0000 C   0  0  0  0  0  0  0  0  0  0  0  0
   -0.5083   -1.6917    0.0000 C   0  0  0  0  0  0  0  0  0  0  0  0
    1.4167    1.0833    0.0000 C   0  0  0  0  0  0  0  0  0  0  0  0
    2.8625    0.8000    0.0000 C   0  0  0  0  0  0  0  0  0  0  0  0
    1.9000    0.8000    0.0000 C   0  0  0  0  0  0  0  0  0  0  0  0
    2.3792    1.0833    0.0000 C   0  0  0  0  0  0  0  0  0  0  0  0
   -1.4625   -1.0542    0.0000 H   0  0  0  0  0  0  0  0  0  0  0  0
   -2.4250   -1.0375    0.0000 H   0  0  0  0  0  0  0  0  0  0  0  0
  2  4  2  0
  3  5  1  0
  4  1  1  0
  5  1  1  0
  6  1  1  0
  7 13  1  0
  8  2  1  0
  9 14  1  0
 10  8  1  0
 11  9  1  0
 12 11  1  0
 13  6  1  0
 14  6  1  0
 15  3  1  0
 16 28  1  0
 17  5  2  0
 18  8  2  0
 13 19  1  1
 20 15  1  0
 21 10  1  0
  1 22  1  1
 23 15  2  0
 24  4  1  0
 25  7  1  0
 26 16  2  0
 11 27  1  6
 28 41  1  0
 29 20  1  0
 30 12  1  0
 31 29  1  0
 32 16  1  0
 11 33  1  1
 28 34  1  6
 35 21  1  0
 36 30  2  0
 37 21  2  0
 38 19  1  0
 39 19  1  0
 40 31  1  0
 41 43  1  0
 42 40  1  0
 43 42  1  0
  6 44  1  1
  9 45  1  1
  2  9  1  0
  3  7  2  0
 12 10  2  0
 36 37  1  0
M  END

> <chembl_id>
CHEMBL2103929

> <chembl_pref_name>
LYMECYCLINE

$$$$

     RDKit          2D

 52 54  0  0  0  0  0  0  0  0999 V2000
    1.2810    0.3782    0.0000 C   0  0  0  0  0  0  0  0  0  0  0  0
    1.0432   -0.4118    0.0000 C   0  0  0  0  0  0  0  0  0  0  0  0
    0.2184   -0.4297    0.0000 C   0  0  0  0  0  0  0  0  0  0  0  0
   -0.0535    0.3492    0.0000 C   0  0  0  0  0  0  0  0  0  0  0  0
   -0.8254    0.8175    0.0000 C   0  0  0  0  0  0  0  0  0  0  0  0
   -0.8433    1.6423    0.0000 C   0  0  0  0  0  0  0  0  0  0  0  0
   -1.5665    2.0392    0.0000 C   0  0  0  0  0  0  0  0  0  0  0  0
   -1.5844    2.8640    0.0000 C   0  0  0  0  0  0  0  0  0  0  0  0
   -0.8791    3.2919    0.0000 C   0  0  0  0  0  0  0  0  0  0  0  0
   -0.1558    2.8950    0.0000 N   0  0  0  0  0  0  0  0  0  0  0  0
    0.5495    3.3229    0.0000 C   0  0  0  0  0  0  0  0  0  0  0  0
    1.2728    2.9260    0.0000 C   0  0  0  0  0  0  0  0  0  0  0  0
    1.2907    2.1012    0.0000 C   0  0  0  0  0  0  0  0  0  0  0  0
    2.0139    1.7043    0.0000 C   0  0  0  0  0  0  0  0  0  0  0  0
    2.7193    2.1322    0.0000 C   0  0  0  0  0  0  0  0  0  0  0  0
    3.4425    1.7354    0.0000 C   0  0  0  0  0  0  0  0  0  0  0  0
    1.5425   -1.0685    0.0000 C   0  0  0  0  0  0  0  0  0  0  0  0
    0.5877    0.8684    0.0000 C   0  0  0  0  0  0  0  0  0  0  0  0
   -1.4241    1.0564    0.0000 C   0  0  0  0  0  0  0  0  0  0  0  0
   -2.3077    3.2609    0.0000 C   0  0  0  0  0  0  0  0  0  0  0  0
   -0.1379    2.0702    0.0000 C   0  0  0  0  0  0  0  0  0  0  0  0
    0.5316    4.1477    0.0000 C   0  0  0  0  0  0  0  0  0  0  0  0
    2.0786    2.3458    0.0000 C   0  0  0  0  0  0  0  0  0  0  0  0
    0.8021    1.0499    0.0000 O   0  0  0  0  0  0  0  0  0  0  0  0
   -1.6312    1.3977    0.0000 O   0  0  0  0  0  0  0  0  0  0  0  0
    1.9781    3.3539    0.0000 O   0  0  0  0  0  0  0  0  0  0  0  0
    1.8715    2.6871    0.0000 O   0  0  0  0  0  0  0  0  0  0  0  0
    2.0318    0.8795    0.0000 O   0  0  0  0  0  0  0  0  0  0  0  0
   -1.5398   -0.4200    0.0000 C   0  0  0  0  0  0  0  0  0  0  0  0
   -2.2543   -0.8325    0.0000 C   0  0  0  0  0  0  0  0  0  0  0  0
   -2.2543   -1.6575    0.0000 C   0  0  0  0  0  0  0  0  0  0  0  0
   -1.5398   -2.0700    0.0000 C   0  0  0  0  0  0  0  0  0  0  0  0
   -0.8254   -1.6575    0.0000 C   0  0  0  0  0  0  0  0  0  0  0  0
   -0.7391   -2.4780    0.0000 C   0  0  0  0  0  0  0  0  0  0  0  0
   -3.6832   -1.6575    0.0000 C   0  0  0  0  0  0  0  0  0  0  0  0
   -2.9688   -2.8950    0.0000 C   0  0  0  0  0  0  0  0  0  0  0  0
   -1.5398    0.4050    0.0000 O   0  0  0  0  0  0  0  0  0  0  0  0
   -2.9688   -0.4200    0.0000 O   0  0  0  0  0  0  0  0  0  0  0  0
   -2.9688   -2.0700    0.0000 N   0  0  0  0  0  0  0  0  0  0  0  0
   -0.8254   -0.8325    0.0000 O   0  0  0  0  0  0  0  0  0  0  0  0
    0.0999   -1.8537    0.0000 C   0  0  0  0  0  0  0  0  0  0  0  0
    0.9221   -1.9221    0.0000 C   0  0  0  0  0  0  0  0  0  0  0  0
    1.2739   -2.6683    0.0000 C   0  0  0  0  0  0  0  0  0  0  0  0
    0.8036   -3.3461    0.0000 C   0  0  0  0  0  0  0  0  0  0  0  0
   -0.0186   -3.2777    0.0000 C   0  0  0  0  0  0  0  0  0  0  0  0
   -0.4889   -3.9555    0.0000 C   0  0  0  0  0  0  0  0  0  0  0  0
    1.9677   -3.1147    0.0000 C   0  0  0  0  0  0  0  0  0  0  0  0
    2.6929   -2.8365    0.0000 C   0  0  0  0  0  0  0  0  0  0  0  0
   -0.2519   -1.1075    0.0000 O   0  0  0  0  0  0  0  0  0  0  0  0
    2.0319   -2.3428    0.0000 O   0  0  0  0  0  0  0  0  0  0  0  0
    1.1554   -4.0924    0.0000 O   0  0  0  0  0  0  0  0  0  0  0  0
   -0.3704   -2.5315    0.0000 O   0  0  0  0  0  0  0  0  0  0  0  0
  1  2  1  0
  1 24  2  0
  1 28  1  0
  2  3  1  0
  2 17  1  6
  3  4  1  0
  3 49  1  1
  4  5  1  0
  4 18  1  1
  5  6  1  0
  5 37  1  1
  6  7  1  0
  6 19  1  1
  6 25  1  6
  7  8  1  0
  8  9  1  0
  8 20  1  1
  9 10  1  0
 11 10  1  0
 21 10  1  0
 11 12  1  0
 11 22  1  6
 12 13  1  0
 12 26  1  1
 13 14  1  0
 13 23  1  1
 13 27  1  6
 14 15  1  1
 14 28  1  0
 15 16  1  0
 29 30  1  0
 29 37  1  6
 29 40  1  0
 30 31  1  0
 30 38  1  1
 31 32  1  0
 31 39  1  6
 32 33  1  0
 33 34  1  6
 33 40  1  0
 35 39  1  0
 36 39  1  0
 41 42  1  0
 41 49  1  1
 41 52  1  0
 42 43  1  0
 43 44  1  0
 43 47  1  6
 43 50  1  1
 44 45  1  0
 44 51  1  1
 45 46  1  6
 45 52  1  0
 48 50  1  0
M  END

> <chembl_id>
CHEMBL529

> <chembl_pref_name>
AZITHROMYCIN

$$$$

     RDKit          2D

 35 38  0  0  1  0  0  0  0  0999 V2000
    5.1042   -4.9417    0.0000 C   0  0  0  0  0  0  0  0  0  0  0  0
    3.9167   -4.9417    0.0000 C   0  0  0  0  0  0  0  0  0  0  0  0
    6.3292   -4.9167    0.0000 C   0  0  0  0  0  0  0  0  0  0  0  0
    4.5125   -4.5917    0.0000 C   0  0  0  0  0  0  0  0  0  0  0  0
    5.7042   -4.5917    0.0000 C   0  0  0  0  0  0  0  0  0  0  0  0
    3.3167   -4.5917    0.0000 C   0  0  0  0  0  0  0  0  0  0  0  0
    5.1042   -5.6500    0.0000 C   0  0  0  0  0  0  0  0  0  0  0  0
    2.7167   -5.6500    0.0000 C   0  0  0  0  0  0  0  0  0  0  0  0
    2.7167   -4.9417    0.0000 C   0  0  0  0  0  0  0  0  0  0  0  0
    6.3042   -5.6500    0.0000 C   0  0  0  0  0  0  0  0  0  0  0  0
    3.3167   -5.9792    0.0000 C   0  0  0  0  0  0  0  0  0  0  0  0
    3.9167   -5.6500    0.0000 C   0  0  0  0  0  0  0  0  0  0  0  0
    5.7042   -5.9792    0.0000 C   0  0  0  0  0  0  0  0  0  0  0  0
    4.5125   -5.9792    0.0000 C   0  0  0  0  0  0  0  0  0  0  0  0
    6.9542   -4.5542    0.0000 C   0  0  0  0  0  0  0  0  0  0  0  0
    2.1167   -5.9792    0.0000 C   0  0  0  0  0  0  0  0  0  0  0  0
    2.1167   -4.5917    0.0000 C   0  0  0  0  0  0  0  0  0  0  0  0
    5.7042   -3.9042    0.0000 O   0  0  0  0  0  0  0  0  0  0  0  0
    3.3167   -3.9042    0.0000 O   0  0  0  0  0  0  0  0  0  0  0  0
    5.7042   -6.6625    0.0000 N   0  0  0  0  0  0  0  0  0  0  0  0
    5.0917   -4.1500    0.0000 O   0  0  0  0  0  0  0  0  0  0  0  0
    6.9542   -3.8292    0.0000 O   0  0  0  0  0  0  0  0  0  0  0  0
    4.5125   -3.6542    0.0000 O   0  0  0  0  0  0  0  0  0  0  0  0
    6.8792   -6.0042    0.0000 O   0  0  0  0  0  0  0  0  0  0  0  0
    3.0292   -6.7125    0.0000 O   0  0  0  0  0  0  0  0  0  0  0  0
    1.5250   -5.6500    0.0000 C   0  0  0  0  0  0  0  0  0  0  0  0
    1.5250   -4.9417    0.0000 C   0  0  0  0  0  0  0  0  0  0  0  0
    7.5792   -4.9125    0.0000 N   0  0  0  0  0  0  0  0  0  0  0  0
    3.7167   -6.8417    0.0000 C   0  0  0  0  0  0  0  0  0  0  0  0
    2.1167   -6.6917    0.0000 Cl  0  0  0  0  0  0  0  0  0  0  0  0
    2.1167   -3.9042    0.0000 O   0  0  0  0  0  0  0  0  0  0  0  0
    6.2917   -7.0000    0.0000 C   0  0  0  0  0  0  0  0  0  0  0  0
    5.1167   -7.0042    0.0000 C   0  0  0  0  0  0  0  0  0  0  0  0
    3.9125   -6.3000    0.0000 H   0  0  0  0  0  0  0  0  0  0  0  0
    5.0917   -6.3167    0.0000 H   0  0  0  0  0  0  0  0  0  0  0  0
  2  4  2  0
  3  5  1  0
  4  1  1  0
  5  1  1  0
  6  2  1  0
  7  1  1  0
  8 11  1  0
  9  6  1  0
 10 13  1  0
 11 12  1  0
 12  2  1  0
 13  7  1  0
 14  7  1  0
 15  3  1  0
 16  8  1  0
 17  9  1  0
 18  5  2  0
 19  6  2  0
 13 20  1  1
  1 21  1  1
 22 15  2  0
 23  4  1  0
 24 10  1  0
 11 25  1  6
 26 16  2  0
 27 17  2  0
 28 15  1  0
 29 11  1  0
 30 16  1  0
 31 17  1  0
 32 20  1  0
 33 20  1  0
 12 34  1  1
  7 35  1  1
 12 14  1  0
  3 10  2  0
  8  9  2  0
 26 27  1  0
M  END

> <chembl_id>
CHEMBL404520

> <chembl_pref_name>
CHLORTETRACYCLINE

$$$$

     RDKit          2D

 40 42  0  0  1  0  0  0  0  0999 V2000
    0.3572   -1.5469    0.0000 O   0  0  0  0  0  0  0  0  0  0  0  0
   -1.0717    0.9281    0.0000 O   0  0  0  0  0  0  0  0  0  0  0  0
   -1.0717   -1.5469    0.0000 O   0  0  0  0  0  0  0  0  0  0  0  0
   -0.3572    2.1656    0.0000 O   0  0  0  0  0  0  0  0  0  0  0  0
   -1.0717   -0.7219    0.0000 O   0  0  0  0  0  0  0  0  0  0  0  0
    0.3572   -3.1969    0.0000 O   0  0  0  0  0  0  0  0  0  0  0  0
   -2.5006    1.7531    0.0000 O   0  0  0  0  0  0  0  0  0  0  0  0
   -2.5006    3.4031    0.0000 O   0  0  0  0  0  0  0  0  0  0  0  0
   -1.0717    4.2281    0.0000 O   0  0  0  0  0  0  0  0  0  0  0  0
   -2.5006   -3.1969    0.0000 O   0  0  0  0  0  0  0  0  0  0  0  0
    2.5006    0.5156    0.0000 O   0  0  0  0  0  0  0  0  0  0  0  0
   -3.2151   -1.9594    0.0000 O   0  0  0  0  0  0  0  0  0  0  0  0
    3.2151   -1.5469    0.0000 O   0  0  0  0  0  0  0  0  0  0  0  0
    1.7862   -0.7219    0.0000 N   0  0  0  0  0  0  0  0  0  0  0  0
    0.3572    1.7531    0.0000 N   0  0  0  0  0  0  0  0  0  0  0  0
   -1.0717   -4.0219    0.0000 N   0  0  0  0  0  0  0  0  0  0  0  0
    0.3572    4.2281    0.0000 N   0  0  0  0  0  0  0  0  0  0  0  0
    4.6441   -1.5469    0.0000 N   0  0  0  0  0  0  0  0  0  0  0  0
    0.3572   -0.7219    0.0000 C   0  0  0  0  0  0  0  0  0  0  0  0
   -0.3572    0.5156    0.0000 C   0  0  0  0  0  0  0  0  0  0  0  0
   -0.3572   -0.3094    0.0000 C   0  0  0  0  0  0  0  0  0  0  0  0
    1.0717   -0.3094    0.0000 C   0  0  0  0  0  0  0  0  0  0  0  0
    0.3572    0.9281    0.0000 C   0  0  0  0  0  0  0  0  0  0  0  0
   -0.3572   -1.9594    0.0000 C   0  0  0  0  0  0  0  0  0  0  0  0
   -1.0717    1.7531    0.0000 C   0  0  0  0  0  0  0  0  0  0  0  0
    1.0717    0.5156    0.0000 C   0  0  0  0  0  0  0  0  0  0  0  0
   -0.3572   -2.7844    0.0000 C   0  0  0  0  0  0  0  0  0  0  0  0
   -1.7862    2.1656    0.0000 C   0  0  0  0  0  0  0  0  0  0  0  0
   -1.7862    2.9906    0.0000 C   0  0  0  0  0  0  0  0  0  0  0  0
   -1.0717   -3.1969    0.0000 C   0  0  0  0  0  0  0  0  0  0  0  0
   -1.0717    3.4031    0.0000 C   0  0  0  0  0  0  0  0  0  0  0  0
   -0.3572    2.9906    0.0000 C   0  0  0  0  0  0  0  0  0  0  0  0
   -1.7862   -2.7844    0.0000 C   0  0  0  0  0  0  0  0  0  0  0  0
   -1.7862   -1.9594    0.0000 C   0  0  0  0  0  0  0  0  0  0  0  0
    2.5006   -0.3094    0.0000 C   0  0  0  0  0  0  0  0  0  0  0  0
    0.3572    3.4031    0.0000 C   0  0  0  0  0  0  0  0  0  0  0  0
   -2.5006   -1.5469    0.0000 C   0  0  0  0  0  0  0  0  0  0  0  0
    3.2151   -0.7219    0.0000 C   0  0  0  0  0  0  0  0  0  0  0  0
    3.9296   -0.3094    0.0000 C   0  0  0  0  0  0  0  0  0  0  0  0
    4.6441   -0.7219    0.0000 C   0  0  0  0  0  0  0  0  0  0  0  0
 19  1  1  6
 24  1  1  6
 20  2  1  6
 25  2  1  6
  3 24  1  0
  3 34  1  0
  4 25  1  0
  4 32  1  0
 21  5  1  1
 27  6  1  6
 28  7  1  6
 29  8  1  1
 31  9  1  6
 33 10  1  6
 11 35  2  0
 12 37  1  0
 38 13  1  6
 22 14  1  1
 14 35  1  0
 23 15  1  1
 30 16  1  1
 17 36  1  0
 18 40  1  0
 19 21  1  0
 19 22  1  0
 20 21  1  0
 20 23  1  0
 22 26  1  0
 23 26  1  0
 24 27  1  0
 25 28  1  0
 27 30  1  0
 28 29  1  0
 29 31  1  0
 30 33  1  0
 31 32  1  0
 32 36  1  1
 33 34  1  0
 34 37  1  1
 35 38  1  0
 38 39  1  0
 39 40  1  0
M  END

> <chembl_id>
CHEMBL177

> <chembl_pref_name>
AMIKACIN

$$$$

     RDKit          2D

 33 35  0  0  0  0  0  0  0  0999 V2000
   -2.0917    0.4375    0.0000 C   0  0  0  0  0  0  0  0  0  0  0  0
   -2.0917   -0.3875    0.0000 C   0  0  0  0  0  0  0  0  0  0  0  0
   -1.3796   -0.7958    0.0000 C   0  0  0  0  0  0  0  0  0  0  0  0
   -0.6676   -0.3875    0.0000 C   0  0  0  0  0  0  0  0  0  0  0  0
   -0.6676    0.4375    0.0000 C   0  0  0  0  0  0  0  0  0  0  0  0
   -1.3796    0.8542    0.0000 C   0  0  0  0  0  0  0  0  0  0  0  0
    0.0480    0.8479    0.0000 O   0  0  0  0  0  0  0  0  0  0  0  0
    0.0462   -0.8010    0.0000 N   0  0  0  0  0  0  0  0  0  0  0  0
   -2.8055   -0.8010    0.0000 N   0  0  0  0  0  0  0  0  0  0  0  0
   -2.8073    0.8479    0.0000 O   0  0  0  0  0  0  0  0  0  0  0  0
   -1.3796    1.6792    0.0000 O   0  0  0  0  0  0  0  0  0  0  0  0
    0.7613    0.4333    0.0000 C   0  0  0  0  0  0  0  0  0  0  0  0
    0.7536   -0.3926    0.0000 O   0  0  0  0  0  0  0  0  0  0  0  0
    1.4628   -0.8071    0.0000 C   0  0  0  0  0  0  0  0  0  0  0  0
    2.1809   -0.4002    0.0000 C   0  0  0  0  0  0  0  0  0  0  0  0
    2.1853    0.4257    0.0000 C   0  0  0  0  0  0  0  0  0  0  0  0
    1.4716    0.8448    0.0000 C   0  0  0  0  0  0  0  0  0  0  0  0
    0.7542    1.2583    0.0000 H   0  0  0  0  0  0  0  0  0  0  0  0
    1.4740    1.6698    0.0000 O   0  0  0  0  0  0  0  0  0  0  0  0
    2.9024    0.8337    0.0000 N   0  0  0  0  0  0  0  0  0  0  0  0
    2.9750   -0.1833    0.0000 O   0  0  0  0  0  0  0  0  0  0  0  0
    2.5875   -1.1125    0.0000 C   0  0  0  0  0  0  0  0  0  0  0  0
    3.6142    0.4167    0.0000 C   0  0  0  0  0  0  0  0  0  0  0  0
   -3.5206    0.4333    0.0000 C   0  0  0  0  0  0  0  0  0  0  0  0
   -4.2360    0.8461    0.0000 C   0  0  0  0  0  0  0  0  0  0  0  0
   -4.9471    0.4350    0.0000 C   0  0  0  0  0  0  0  0  0  0  0  0
   -4.9490   -0.3903    0.0000 C   0  0  0  0  0  0  0  0  0  0  0  0
   -4.2334   -0.8029    0.0000 C   0  0  0  0  0  0  0  0  0  0  0  0
   -3.5161   -0.3902    0.0000 O   0  0  0  0  0  0  0  0  0  0  0  0
   -4.2338   -1.6279    0.0000 C   0  0  0  0  0  0  0  0  0  0  0  0
   -4.9485   -2.0401    0.0000 N   0  0  0  0  0  0  0  0  0  0  0  0
   -4.2363    1.6711    0.0000 N   0  0  0  0  0  0  0  0  0  0  0  0
   -3.5250    1.2583    0.0000 H   0  0  0  0  0  0  0  0  0  0  0  0
 14 15  1  0
 15 16  1  0
 16 17  1  0
  1  6  1  0
 12 18  1  1
  2  9  1  6
 17 19  1  6
  2  3  1  0
 16 20  1  1
  1 10  1  1
 15 21  1  1
  3  4  1  0
 15 22  1  0
  6 11  1  6
 20 23  1  0
  4  5  1  0
 10 24  1  0
 24 25  1  0
  7 12  1  0
 12 13  1  0
  5  6  1  0
  5  7  1  1
 24 29  1  0
 25 26  1  0
 26 27  1  0
 27 28  2  0
 28 29  1  0
  1  2  1  0
 28 30  1  0
  4  8  1  6
 30 31  1  0
 12 17  1  0
 25 32  1  1
 13 14  1  0
 24 33  1  6
M  END

> <chembl_id>
CHEMBL221886

> <chembl_pref_name>
SISOMICIN

$$$$

     RDKit          2D

 29 30  0  0  0  0  0  0  0  0999 V2000
  -10.1946    2.1455    0.0000 N   0  0  0  0  0  0  0  0  0  0  0  0
  -10.8621    1.6606    0.0000 C   0  0  0  0  0  0  0  0  0  0  0  0
  -10.6071    0.8760    0.0000 C   0  0  0  0  0  0  0  0  0  0  0  0
   -9.7821    0.8760    0.0000 C   0  0  0  0  0  0  0  0  0  0  0  0
   -9.5272    1.6606    0.0000 C   0  0  0  0  0  0  0  0  0  0  0  0
   -8.7426    1.9155    0.0000 C   0  0  0  0  0  0  0  0  0  0  0  0
   -8.5711    2.7225    0.0000 O   0  0  0  0  0  0  0  0  0  0  0  0
   -8.1295    1.3635    0.0000 N   0  0  0  0  0  0  0  0  0  0  0  0
   -7.3449    1.6184    0.0000 C   0  0  0  0  0  0  0  0  0  0  0  0
   -6.7318    1.0664    0.0000 C   0  0  0  0  0  0  0  0  0  0  0  0
   -7.1314    2.4153    0.0000 C   0  0  0  0  0  0  0  0  0  0  0  0
   -6.3345    2.6288    0.0000 C   0  0  0  0  0  0  0  0  0  0  0  0
   -7.7147    2.9987    0.0000 Cl  0  0  0  0  0  0  0  0  0  0  0  0
   -6.9033    0.2594    0.0000 C   0  0  0  0  0  0  0  0  0  0  0  0
   -6.2902   -0.2926    0.0000 C   0  0  0  0  0  0  0  0  0  0  0  0
   -5.5056   -0.0377    0.0000 C   0  0  0  0  0  0  0  0  0  0  0  0
   -5.3341    0.7692    0.0000 C   0  0  0  0  0  0  0  0  0  0  0  0
   -5.9472    1.3213    0.0000 O   0  0  0  0  0  0  0  0  0  0  0  0
   -4.5494    1.0242    0.0000 S   0  0  0  0  0  0  0  0  0  0  0  0
   -4.3779    1.8311    0.0000 C   0  0  0  0  0  0  0  0  0  0  0  0
   -4.8925   -0.5898    0.0000 O   0  0  0  0  0  0  0  0  0  0  0  0
   -6.4618   -1.0996    0.0000 O   0  0  0  0  0  0  0  0  0  0  0  0
   -7.6879    0.0045    0.0000 O   0  0  0  0  0  0  0  0  0  0  0  0
  -10.1946    2.9705    0.0000 C   0  0  0  0  0  0  0  0  0  0  0  0
  -11.0921    0.2086    0.0000 C   0  0  0  0  0  0  0  0  0  0  0  0
  -11.9171    0.2086    0.0000 C   0  0  0  0  0  0  0  0  0  0  0  0
  -12.3296   -0.5059    0.0000 C   0  0  0  0  0  0  0  0  0  0  0  0
   -7.5287    0.8529    0.0000 H   0  0  0  0  0  0  0  0  0  0  0  0
   -6.5480    1.8319    0.0000 H   0  0  0  0  0  0  0  0  0  0  0  0
  1  2  1  0
  2  3  1  0
  3  4  1  0
  4  5  1  0
  1  5  1  0
  5  6  1  6
  6  7  2  0
  6  8  1  0
  8  9  1  0
 10  9  1  0
  9 11  1  0
 11 12  1  0
 11 13  1  1
 10 14  1  0
 18 10  1  0
 14 15  1  0
 15 16  1  0
 16 17  1  0
 17 18  1  0
 17 19  1  6
 19 20  1  0
 16 21  1  6
 15 22  1  1
 14 23  1  1
  1 24  1  0
  3 25  1  1
 25 26  1  0
 26 27  1  0
 10 28  1  6
  9 29  1  1
M  END

> <chembl_id>
CHEMBL1753

> <chembl_pref_name>
CLINDAMYCIN

$$$$

     RDKit          2D

 25 27  0  0  0  0  0  0  0  0999 V2000
    5.5417   -2.8417    0.0000 C   0  0  0  0  0  0  0  0  0  0  0  0
    4.3042   -2.8417    0.0000 C   0  0  0  0  0  0  0  0  0  0  0  0
    4.9250   -1.7625    0.0000 N   0  0  0  0  0  0  0  0  0  0  0  0
    4.3042   -2.1250    0.0000 C   0  0  0  0  0  0  0  0  0  0  0  0
    4.9167   -3.2000    0.0000 C   0  0  0  0  0  0  0  0  0  0  0  0
    3.6917   -1.7667    0.0000 C   0  0  0  0  0  0  0  0  0  0  0  0
    5.5417   -2.1250    0.0000 C   0  0  0  0  0  0  0  0  0  0  0  0
    3.0750   -2.1250    0.0000 C   0  0  0  0  0  0  0  0  0  0  0  0
    2.4875   -1.8792    0.0000 N   0  0  0  0  0  0  0  0  0  0  0  0
    3.0750   -2.8417    0.0000 C   0  0  0  0  0  0  0  0  0  0  0  0
    3.6917   -3.2000    0.0000 C   0  0  0  0  0  0  0  0  0  0  0  0
    6.1625   -3.2042    0.0000 C   0  0  0  0  0  0  0  0  0  0  0  0
    2.4875   -1.1667    0.0000 C   0  0  0  0  0  0  0  0  0  0  0  0
    4.9167   -3.9125    0.0000 O   0  0  0  0  0  0  0  0  0  0  0  0
    1.2500   -1.1792    0.0000 N   0  0  0  0  0  0  0  0  0  0  0  0
    6.7792   -2.8417    0.0000 O   0  0  0  0  0  0  0  0  0  0  0  0
    3.6875   -1.0542    0.0000 F   0  0  0  0  0  0  0  0  0  0  0  0
    2.4542   -3.2000    0.0000 F   0  0  0  0  0  0  0  0  0  0  0  0
    1.8667   -2.2417    0.0000 C   0  0  0  0  0  0  0  0  0  0  0  0
    4.9250   -1.0500    0.0000 C   0  0  0  0  0  0  0  0  0  0  0  0
    1.8667   -0.8167    0.0000 C   0  0  0  0  0  0  0  0  0  0  0  0
    6.1625   -3.9167    0.0000 O   0  0  0  0  0  0  0  0  0  0  0  0
    1.2542   -1.8875    0.0000 C   0  0  0  0  0  0  0  0  0  0  0  0
    1.8542   -0.1042    0.0000 C   0  0  0  0  0  0  0  0  0  0  0  0
    5.5417   -0.6917    0.0000 C   0  0  0  0  0  0  0  0  0  0  0  0
  2  5  1  0
  3  7  1  0
  4  3  1  0
  5  1  1  0
  6  4  2  0
  7  1  2  0
  8  6  1  0
  9  8  1  0
 10 11  1  0
 11  2  2  0
 12  1  1  0
 13  9  1  0
 14  5  2  0
 15 23  1  0
 16 12  2  0
 17  6  1  0
 18 10  1  0
 19  9  1  0
 20  3  1  0
 21 13  1  0
 22 12  1  0
 23 19  1  0
 24 21  1  0
 25 20  1  0
  2  4  1  0
 10  8  2  0
 15 21  1  0
M  END

> <chembl_id>
CHEMBL561

> <chembl_pref_name>
LOMEFLOXACIN

$$$$

     RDKit          2D

 23 25  0  0  0  0  0  0  0  0999 V2000
   11.0152   -3.8625    0.0000 C   0  0  0  0  0  0  0  0  0  0  0  0
   11.0141   -4.6898    0.0000 C   0  0  0  0  0  0  0  0  0  0  0  0
   11.7289   -5.1027    0.0000 C   0  0  0  0  0  0  0  0  0  0  0  0
   11.7271   -3.4497    0.0000 C   0  0  0  0  0  0  0  0  0  0  0  0
   12.4425   -3.8588    0.0000 C   0  0  0  0  0  0  0  0  0  0  0  0
   12.4413   -4.6873    0.0000 C   0  0  0  0  0  0  0  0  0  0  0  0
   13.1543   -5.1003    0.0000 C   0  0  0  0  0  0  0  0  0  0  0  0
   13.8729   -4.6893    0.0000 C   0  0  0  0  0  0  0  0  0  0  0  0
   13.8741   -3.8608    0.0000 C   0  0  0  0  0  0  0  0  0  0  0  0
   13.1566   -3.4433    0.0000 N   0  0  0  0  0  0  0  0  0  0  0  0
   13.1566   -2.6183    0.0000 C   0  0  0  0  0  0  0  0  0  0  0  0
   13.8711   -2.2058    0.0000 C   0  0  0  0  0  0  0  0  0  0  0  0
   13.1519   -5.9253    0.0000 O   0  0  0  0  0  0  0  0  0  0  0  0
   14.5862   -5.1038    0.0000 C   0  0  0  0  0  0  0  0  0  0  0  0
   14.5839   -5.9288    0.0000 O   0  0  0  0  0  0  0  0  0  0  0  0
   15.3019   -4.6933    0.0000 O   0  0  0  0  0  0  0  0  0  0  0  0
   10.2993   -5.1018    0.0000 F   0  0  0  0  0  0  0  0  0  0  0  0
   10.3007   -3.4501    0.0000 N   0  0  0  0  0  0  0  0  0  0  0  0
   10.2986   -2.6243    0.0000 C   0  0  0  0  0  0  0  0  0  0  0  0
    9.5882   -2.2121    0.0000 C   0  0  0  0  0  0  0  0  0  0  0  0
    8.8713   -2.6212    0.0000 N   0  0  0  0  0  0  0  0  0  0  0  0
    8.8696   -3.4472    0.0000 C   0  0  0  0  0  0  0  0  0  0  0  0
    9.5846   -3.8640    0.0000 C   0  0  0  0  0  0  0  0  0  0  0  0
 10 11  1  0
 11 12  1  0
  2  3  1  0
  7 13  2  0
  3  6  2  0
  8 14  1  0
  1  2  2  0
 14 15  1  0
  5  4  2  0
 14 16  2  0
  4  1  1  0
  2 17  1  0
  5 10  1  0
  1 18  1  0
 18 19  1  0
  6  7  1  0
  7  8  1  0
  8  9  2  0
  9 10  1  0
  5  6  1  0
 18 23  1  0
 19 20  1  0
 20 21  1  0
 21 22  1  0
 22 23  1  0
M  END

> <chembl_id>
CHEMBL9

> <chembl_pref_name>
NORFLOXACIN

$$$$

     RDKit          2D

 44 48  0  0  0  0  0  0  0  0999 V2000
   19.4727    3.4755    0.0000 C   0  0  0  0  0  0  0  0  0  0  0  0
   19.6689    2.6728    0.0000 C   0  0  0  0  0  0  0  0  0  0  0  0
   20.4605    2.4428    0.0000 O   0  0  0  0  0  0  0  0  0  0  0  0
   20.6567    1.6401    0.0000 N   0  0  0  0  0  0  0  0  0  0  0  0
   21.4464    1.4137    0.0000 C   0  0  0  0  0  0  0  0  0  0  0  0
   21.6425    0.6111    0.0000 C   0  0  0  0  0  0  0  0  0  0  0  0
   22.4065    0.2992    0.0000 N   0  0  0  0  0  0  0  0  0  0  0  0
   22.3469   -0.5198    0.0000 S   0  0  0  0  0  0  0  0  0  0  0  0
   21.5441   -0.7159    0.0000 C   0  0  0  0  0  0  0  0  0  0  0  0
   21.1127   -0.0150    0.0000 N   0  0  0  0  0  0  0  0  0  0  0  0
   21.2359   -1.4779    0.0000 N   0  0  0  0  0  0  0  0  0  0  0  0
   20.4198   -1.5917    0.0000 P   0  0  0  0  0  0  0  0  0  0  0  0
   20.3060   -0.7756    0.0000 O   0  0  0  0  0  0  0  0  0  0  0  0
   20.5280   -2.4062    0.0000 O   0  0  0  0  0  0  0  0  0  0  0  0
   19.6018   -1.7019    0.0000 O   0  0  0  0  0  0  0  0  0  0  0  0
   22.0441    1.9828    0.0000 C   0  0  0  0  0  0  0  0  0  0  0  0
   21.8444    2.7835    0.0000 O   0  0  0  0  0  0  0  0  0  0  0  0
   22.8322    1.7507    0.0000 N   0  0  0  0  0  0  0  0  0  0  0  0
   23.4279    2.3233    0.0000 C   0  0  0  0  0  0  0  0  0  0  0  0
   24.2693    3.1316    0.0000 N   0  0  0  0  0  0  0  0  0  0  0  0
   23.4445    3.1482    0.0000 C   0  0  0  0  0  0  0  0  0  0  0  0
   22.8738    3.7402    0.0000 O   0  0  0  0  0  0  0  0  0  0  0  0
   24.9912    3.5283    0.0000 C   0  0  0  0  0  0  0  0  0  0  0  0
   25.6965    3.1004    0.0000 C   0  0  0  0  0  0  0  0  0  0  0  0
   25.6798    2.2756    0.0000 C   0  0  0  0  0  0  0  0  0  0  0  0
   24.9581    1.8789    0.0000 S   0  0  0  0  0  0  0  0  0  0  0  0
   26.4184    3.4973    0.0000 S   0  0  0  0  0  0  0  0  0  0  0  0
   27.1237    3.0694    0.0000 C   0  0  0  0  0  0  0  0  0  0  0  0
   27.8803    3.3886    0.0000 N   0  0  0  0  0  0  0  0  0  0  0  0
   28.4189    2.7663    0.0000 C   0  0  0  0  0  0  0  0  0  0  0  0
   27.9909    2.0609    0.0000 C   0  0  0  0  0  0  0  0  0  0  0  0
   27.1912    2.2467    0.0000 S   0  0  0  0  0  0  0  0  0  0  0  0
   29.2414    2.8338    0.0000 C   0  0  0  0  0  0  0  0  0  0  0  0
   29.5905    3.5779    0.0000 C   0  0  0  0  0  0  0  0  0  0  0  0
   30.4109    3.6491    0.0000 C   0  0  0  0  0  0  0  0  0  0  0  0
   30.8808    2.9704    0.0000 N   0  0  0  0  0  0  0  0  0  0  0  0
   30.5317    2.2262    0.0000 C   0  0  0  0  0  0  0  0  0  0  0  0
   29.7092    2.1587    0.0000 C   0  0  0  0  0  0  0  0  0  0  0  0
   31.7013    3.0416    0.0000 C   0  0  0  0  0  0  0  0  0  0  0  0
   25.0098    4.3496    0.0000 C   0  0  0  0  0  0  0  0  0  0  0  0
   24.3045    4.7774    0.0000 O   0  0  0  0  0  0  0  0  0  0  0  0
   25.7317    4.7464    0.0000 O   0  0  0  0  0  0  0  0  0  0  0  0
   24.2527    2.3067    0.0000 C   0  0  0  0  0  0  0  0  0  0  0  0
   24.2527    1.4817    0.0000 H   0  0  0  0  0  0  0  0  0  0  0  0
  3  4  1  0
  4  5  2  0
  5  6  1  0
  6  7  2  0
  7  8  1  0
  8  9  1  0
  9 10  2  0
  6 10  1  0
  9 11  1  0
 11 12  1  0
 12 13  2  0
 12 14  1  0
 12 15  1  0
  5 16  1  0
 16 17  2  0
 16 18  1  0
 19 18  1  6
 19 43  1  0
 43 20  1  0
 20 21  1  0
 19 21  1  0
 21 22  2  0
 20 23  1  0
 23 24  2  0
 24 25  1  0
 25 26  1  0
 43 26  1  0
 24 27  1  0
 27 28  1  0
 28 29  2  0
 29 30  1  0
 30 31  2  0
 31 32  1  0
 28 32  1  0
 30 33  1  0
 33 34  2  0
 34 35  1  0
 35 36  2  0
 36 37  1  0
 37 38  2  0
 33 38  1  0
 36 39  1  0
 23 40  1  0
 40 41  2  0
 40 42  1  0
  1  2  1  0
  2  3  1  0
 43 44  1  1
M  CHG  2  36   1  42  -1
M  END

> <chembl_id>
CHEMBL501122

> <chembl_pref_name>
CEFTAROLINE FOSAMIL

$$$$

     RDKit          2D

 18 19  0  0  0  0  0  0  0  0999 V2000
    0.7167   -1.3125    0.0000 S   0  0  0  0  0  0  0  0  0  0  0  0
    1.9500   -1.3125    0.0000 N   0  0  0  0  0  0  0  0  0  0  0  0
    2.5417   -0.2750    0.0000 C   0  0  0  0  0  0  0  0  0  0  0  0
   -0.5083   -1.3125    0.0000 C   0  0  0  0  0  0  0  0  0  0  0  0
    1.9500    0.7458    0.0000 N   0  0  0  0  0  0  0  0  0  0  0  0
    3.7542   -0.2750    0.0000 N   0  0  0  0  0  0  0  0  0  0  0  0
    0.7167   -2.5042    0.0000 O   0  0  0  0  0  0  0  0  0  0  0  0
    0.7167   -0.1167    0.0000 O   0  0  0  0  0  0  0  0  0  0  0  0
    3.7250    1.7833    0.0000 C   0  0  0  0  0  0  0  0  0  0  0  0
   -1.1250   -0.2750    0.0000 C   0  0  0  0  0  0  0  0  0  0  0  0
   -1.1250   -2.3292    0.0000 C   0  0  0  0  0  0  0  0  0  0  0  0
    4.3375    0.7458    0.0000 C   0  0  0  0  0  0  0  0  0  0  0  0
    2.5417    1.8000    0.0000 C   0  0  0  0  0  0  0  0  0  0  0  0
   -2.9000   -1.3125    0.0000 C   0  0  0  0  0  0  0  0  0  0  0  0
   -4.1208   -1.3125    0.0000 N   0  0  0  0  0  0  0  0  0  0  0  0
   -2.3083   -2.3292    0.0000 C   0  0  0  0  0  0  0  0  0  0  0  0
   -2.3083   -0.2750    0.0000 C   0  0  0  0  0  0  0  0  0  0  0  0
    4.2875    2.8000    0.0000 C   0  0  0  0  0  0  0  0  0  0  0  0
  2  1  1  0
  3  2  1  0
  4  1  1  0
  5  3  1  0
  6  3  2  0
  7  1  2  0
  8  1  2  0
  9 12  2  0
 10  4  1  0
 11  4  2  0
 12  6  1  0
 13  5  2  0
 14 16  2  0
 15 14  1  0
 16 11  1  0
 17 10  2  0
 18  9  1  0
 17 14  1  0
 13  9  1  0
M  END

> <chembl_id>
CHEMBL2105499

> <chembl_pref_name>
SULFAPERIN

$$$$

     RDKit          2D

 28 31  0  0  0  0  0  0  0  0999 V2000
   -0.2458   -5.7375    0.0000 N   0  0  0  0  0  0  0  0  0  0  0  0
    1.0833   -6.8000    0.0000 N   0  0  0  0  0  0  0  0  0  0  0  0
    0.3750   -6.0917    0.0000 C   0  0  0  0  0  0  0  0  0  0  0  0
    1.0792   -6.0917    0.0000 C   0  0  0  0  0  0  0  0  0  0  0  0
    0.3750   -6.8000    0.0000 C   0  0  0  0  0  0  0  0  0  0  0  0
   -0.4667   -5.0625    0.0000 C   0  0  0  0  0  0  0  0  0  0  0  0
   -0.8208   -6.1542    0.0000 C   0  0  0  0  0  0  0  0  0  0  0  0
    1.7583   -7.0167    0.0000 C   0  0  0  0  0  0  0  0  0  0  0  0
    1.7542   -5.8708    0.0000 S   0  0  0  0  0  0  0  0  0  0  0  0
   -1.3958   -5.7375    0.0000 N   0  0  0  0  0  0  0  0  0  0  0  0
    2.1750   -6.4417    0.0000 C   0  0  0  0  0  0  0  0  0  0  0  0
   -1.1750   -5.0625    0.0000 C   0  0  0  0  0  0  0  0  0  0  0  0
    1.7542   -7.7250    0.0000 C   0  0  0  0  0  0  0  0  0  0  0  0
   -0.1292   -7.3042    0.0000 O   0  0  0  0  0  0  0  0  0  0  0  0
   -0.0500   -4.4917    0.0000 O   0  0  0  0  0  0  0  0  0  0  0  0
    2.3625   -8.0833    0.0000 O   0  0  0  0  0  0  0  0  0  0  0  0
   -1.7958   -4.7042    0.0000 C   0  0  0  0  0  0  0  0  0  0  0  0
    1.1333   -8.0708    0.0000 O   0  0  0  0  0  0  0  0  0  0  0  0
   -0.4708   -6.7667    0.0000 C   0  0  0  0  0  0  0  0  0  0  0  0
   -1.1833   -6.7667    0.0000 C   0  0  0  0  0  0  0  0  0  0  0  0
    2.7875   -6.7917    0.0000 C   0  0  0  0  0  0  0  0  0  0  0  0
    2.7875   -6.0792    0.0000 C   0  0  0  0  0  0  0  0  0  0  0  0
   -1.7917   -3.9917    0.0000 C   0  0  0  0  0  0  0  0  0  0  0  0
   -2.4083   -5.0625    0.0000 C   0  0  0  0  0  0  0  0  0  0  0  0
   -3.0250   -4.7083    0.0000 C   0  0  0  0  0  0  0  0  0  0  0  0
   -2.4083   -3.6333    0.0000 C   0  0  0  0  0  0  0  0  0  0  0  0
   -3.0292   -3.9917    0.0000 C   0  0  0  0  0  0  0  0  0  0  0  0
    1.0750   -5.3792    0.0000 H   0  0  0  0  0  0  0  0  0  0  0  0
  2  5  1  0
  3  1  1  1
  4  3  1  0
  5  3  1  0
  6  1  1  0
  7  1  1  0
  8  2  1  0
  9  4  1  0
 10  7  1  0
 11  9  1  0
 12  6  1  0
  8 13  1  6
 14  5  2  0
 15  6  2  0
 16 13  1  0
 12 17  1  6
 18 13  2  0
 19  7  1  0
 20  7  1  0
 21 11  1  0
 22 11  1  0
 23 17  2  0
 24 17  1  0
 25 24  2  0
 26 23  1  0
 27 25  1  0
  4 28  1  6
 12 10  1  0
  2  4  1  0
 11  8  1  0
 27 26  2  0
M  END

> <chembl_id>
CHEMBL1201116

> <chembl_pref_name>
HETACILLIN

$$$$

     RDKit          2D

 27 30  0  0  0  0  0  0  0  0999 V2000
    3.9417    2.1558    0.0000 O   0  0  0  0  0  0  0  0  0  0  0  0
    3.1577    2.4085    0.0000 C   0  0  0  0  0  0  0  0  0  0  0  0
    2.6693    1.7436    0.0000 N   0  0  0  0  0  0  0  0  0  0  0  0
    3.1577    1.0746    0.0000 C   0  0  0  0  0  0  0  0  0  0  0  0
    3.9417    1.3315    0.0000 C   0  0  0  0  0  0  0  0  0  0  0  0
    2.9009    3.1924    0.0000 O   0  0  0  0  0  0  0  0  0  0  0  0
    4.6065    0.8472    0.0000 C   0  0  0  0  0  0  0  0  0  0  0  0
    5.3604    1.1803    0.0000 O   0  0  0  0  0  0  0  0  0  0  0  0
    1.8450    1.7436    0.0000 C   0  0  0  0  0  0  0  0  0  0  0  0
    1.4329    2.4589    0.0000 C   0  0  0  0  0  0  0  0  0  0  0  0
    0.6087    2.4589    0.0000 C   0  0  0  0  0  0  0  0  0  0  0  0
    0.1965    1.7436    0.0000 C   0  0  0  0  0  0  0  0  0  0  0  0
    0.6087    1.0285    0.0000 C   0  0  0  0  0  0  0  0  0  0  0  0
    1.4329    1.0285    0.0000 C   0  0  0  0  0  0  0  0  0  0  0  0
   -1.0399    1.0285    0.0000 C   0  0  0  0  0  0  0  0  0  0  0  0
   -0.6277    1.7436    0.0000 C   0  0  0  0  0  0  0  0  0  0  0  0
   -1.0399    2.4589    0.0000 C   0  0  0  0  0  0  0  0  0  0  0  0
   -1.8641    2.4589    0.0000 C   0  0  0  0  0  0  0  0  0  0  0  0
   -2.2762    1.7436    0.0000 C   0  0  0  0  0  0  0  0  0  0  0  0
   -1.8641    1.0285    0.0000 N   0  0  0  0  0  0  0  0  0  0  0  0
   -3.5806    2.4085    0.0000 N   0  0  0  0  0  0  0  0  0  0  0  0
   -4.3646    2.1558    0.0000 N   0  0  0  0  0  0  0  0  0  0  0  0
   -4.3646    1.3315    0.0000 N   0  0  0  0  0  0  0  0  0  0  0  0
   -3.5806    1.0746    0.0000 N   0  0  0  0  0  0  0  0  0  0  0  0
   -3.1005    1.7436    0.0000 C   0  0  0  0  0  0  0  0  0  0  0  0
   -5.0336    2.6401    0.0000 C   0  0  0  0  0  0  0  0  0  0  0  0
    0.1965    3.1699    0.0000 F   0  0  0  0  0  0  0  0  0  0  0  0
  1  2  1  0
  2  3  1  0
  3  4  1  0
  4  5  1  0
  1  5  1  0
  2  6  2  0
  7  8  1  0
  5  7  1  1
  9 10  1  0
 10 11  2  0
 11 12  1  0
 12 13  2  0
 13 14  1  0
  9 14  2  0
 15 16  1  0
 16 17  2  0
 17 18  1  0
 18 19  2  0
 19 20  1  0
 15 20  2  0
 21 22  1  0
 22 23  1  0
 23 24  2  0
 24 25  1  0
 21 25  2  0
 22 26  1  0
 19 25  1  0
 12 16  1  0
 11 27  1  0
  3  9  1  0
M  END

> <chembl_id>
CHEMBL1257051

> <chembl_pref_name>
TEDIZOLID

$$$$

     RDKit          2D

 11 11  0  0  0  0  0  0  0  0999 V2000
   -0.0000   -1.3485    0.0000 C   0  0  0  0  0  0  0  0  0  0  0  0
   -0.0000   -2.1735    0.0000 N   0  0  0  0  0  0  0  0  0  0  0  0
   -0.7145   -0.9360    0.0000 C   0  0  0  0  0  0  0  0  0  0  0  0
   -0.7145   -0.1110    0.0000 C   0  0  0  0  0  0  0  0  0  0  0  0
    0.0000    0.3015    0.0000 C   0  0  0  0  0  0  0  0  0  0  0  0
    0.7145   -0.1110    0.0000 C   0  0  0  0  0  0  0  0  0  0  0  0
    0.7145   -0.9360    0.0000 C   0  0  0  0  0  0  0  0  0  0  0  0
    0.0000    1.1265    0.0000 S   0  0  0  0  0  0  0  0  0  0  0  0
    0.0000    1.9515    0.0000 N   0  0  0  0  0  0  0  0  0  0  0  0
    0.8250    1.1265    0.0000 O   0  0  0  0  0  0  0  0  0  0  0  0
   -0.8250    1.1265    0.0000 O   0  0  0  0  0  0  0  0  0  0  0  0
  1  2  1  0
  1  3  2  0
  1  7  1  0
  3  4  1  0
  4  5  2  0
  5  6  1  0
  5  8  1  0
  6  7  2  0
  9  8  1  0
 10  8  2  0
 11  8  2  0
M  END

> <chembl_id>
CHEMBL21

> <chembl_pref_name>
SULFANILAMIDE

$$$$

     RDKit          2D

 26 28  0  0  1  0  0  0  0  0999 V2000
    4.0042   -7.5167    0.0000 N   0  0  0  0  0  0  0  0  0  0  0  0
    3.2958   -7.5167    0.0000 C   0  0  0  0  0  0  0  0  0  0  0  0
    3.2958   -6.8125    0.0000 C   0  0  0  0  0  0  0  0  0  0  0  0
    4.0042   -6.8125    0.0000 C   0  0  0  0  0  0  0  0  0  0  0  0
    0.8375   -6.8167    0.0000 C   0  0  0  0  0  0  0  0  0  0  0  0
    4.6125   -7.8750    0.0000 C   0  0  0  0  0  0  0  0  0  0  0  0
    1.4500   -6.4583    0.0000 C   0  0  0  0  0  0  0  0  0  0  0  0
    0.2625   -6.3958    0.0000 N   0  0  0  0  0  0  0  0  0  0  0  0
    2.6792   -6.4542    0.0000 N   0  0  0  0  0  0  0  0  0  0  0  0
    2.0625   -6.8125    0.0000 C   0  0  0  0  0  0  0  0  0  0  0  0
   -0.3083   -6.8167    0.0000 C   0  0  0  0  0  0  0  0  0  0  0  0
    4.6125   -8.5792    0.0000 C   0  0  0  0  0  0  0  0  0  0  0  0
    0.6167   -7.4875    0.0000 C   0  0  0  0  0  0  0  0  0  0  0  0
   -0.0917   -7.4875    0.0000 S   0  0  0  0  0  0  0  0  0  0  0  0
    4.6125   -6.4542    0.0000 S   0  0  0  0  0  0  0  0  0  0  0  0
    5.2250   -7.5167    0.0000 C   0  0  0  0  0  0  0  0  0  0  0  0
    1.4458   -5.7458    0.0000 N   0  0  0  0  0  0  0  0  0  0  0  0
    2.7917   -8.0208    0.0000 O   0  0  0  0  0  0  0  0  0  0  0  0
    2.0667   -7.5208    0.0000 O   0  0  0  0  0  0  0  0  0  0  0  0
    5.2292   -8.9375    0.0000 O   0  0  0  0  0  0  0  0  0  0  0  0
    4.0000   -8.9375    0.0000 O   0  0  0  0  0  0  0  0  0  0  0  0
   -0.9250   -6.4625    0.0000 N   0  0  0  0  0  0  0  0  0  0  0  0
    5.2250   -6.8125    0.0000 C   0  0  0  0  0  0  0  0  0  0  0  0
    2.0625   -5.3958    0.0000 O   0  0  0  0  0  0  0  0  0  0  0  0
    2.0667   -4.6875    0.0000 C   0  0  0  0  0  0  0  0  0  0  0  0
    4.0000   -6.1042    0.0000 H   0  0  0  0  0  0  0  0  0  0  0  0
  2  1  1  0
  3  4  1  0
  4  1  1  0
  5  7  1  0
  6  1  1  0
  7 10  1  0
  8  5  1  0
  3  9  1  1
 10  9  1  0
 11  8  2  0
 12  6  1  0
 13  5  2  0
 14 13  1  0
 15  4  1  0
 16  6  2  0
 17  7  2  0
 18  2  2  0
 19 10  2  0
 20 12  1  0
 21 12  2  0
 22 11  1  0
 23 15  1  0
 24 17  1  0
 25 24  1  0
  4 26  1  6
  2  3  1  0
 23 16  1  0
 14 11  1  0
M  END

> <chembl_id>
CHEMBL528

> <chembl_pref_name>
CEFTIZOXIME

$$$$

     RDKit          2D

 24 25  0  0  1  0  0  0  0  0999 V2000
    4.4250   -4.9129    0.0000 N   0  0  0  0  0  0  0  0  0  0  0  0
    3.7337   -4.8878    0.0000 C   0  0  0  0  0  0  0  0  0  0  0  0
    4.3871   -5.6120    0.0000 C   0  0  0  0  0  0  0  0  0  0  0  0
    3.6959   -5.5869    0.0000 C   0  0  0  0  0  0  0  0  0  0  0  0
    5.0497   -4.5853    0.0000 C   0  0  0  0  0  0  0  0  0  0  0  0
    4.9858   -6.0047    0.0000 S   0  0  0  0  0  0  0  0  0  0  0  0
    5.6442   -4.9779    0.0000 C   0  0  0  0  0  0  0  0  0  0  0  0
    2.9051   -5.7792    0.0000 N   0  0  0  0  0  0  0  0  0  0  0  0
    5.0881   -3.8737    0.0000 C   0  0  0  0  0  0  0  0  0  0  0  0
    0.9667   -4.1917    0.0000 N   0  0  0  0  0  0  0  0  0  0  0  0
    2.5770   -5.1669    0.0000 C   0  0  0  0  0  0  0  0  0  0  0  0
    5.6358   -5.6698    0.0000 C   0  0  0  0  0  0  0  0  0  0  0  0
    1.4292   -4.7417    0.0000 C   0  0  0  0  0  0  0  0  0  0  0  0
    3.3840   -4.2998    0.0000 O   0  0  0  0  0  0  0  0  0  0  0  0
    1.8849   -5.2836    0.0000 C   0  0  0  0  0  0  0  0  0  0  0  0
    6.2735   -4.6422    0.0000 C   0  0  0  0  0  0  0  0  0  0  0  0
    7.5222   -4.7000    0.0000 C   0  0  0  0  0  0  0  0  0  0  0  0
    4.4886   -3.5018    0.0000 O   0  0  0  0  0  0  0  0  0  0  0  0
    5.7003   -3.5457    0.0000 O   0  0  0  0  0  0  0  0  0  0  0  0
    6.8846   -5.0354    0.0000 O   0  0  0  0  0  0  0  0  0  0  0  0
    2.7019   -4.4835    0.0000 O   0  0  0  0  0  0  0  0  0  0  0  0
    7.5563   -3.9882    0.0000 O   0  0  0  0  0  0  0  0  0  0  0  0
    8.1082   -5.0965    0.0000 C   0  0  0  0  0  0  0  0  0  0  0  0
    4.0836   -6.5648    0.0000 H   0  0  0  0  0  0  0  0  0  0  0  0
  2  1  1  0
  3  1  1  0
  4  3  1  0
  5  1  1  0
  6  3  1  0
  7  5  2  0
  4  8  1  6
  9  5  1  0
 10 13  3  0
 11  8  1  0
 12  7  1  0
 13 15  1  0
 14  2  2  0
 15 11  1  0
 16  7  1  0
 17 20  1  0
 18  9  1  0
 19  9  2  0
 20 16  1  0
 21 11  2  0
 22 17  2  0
 23 17  1  0
  2  4  1  0
  6 12  1  0
  3 24  1  1
M  END

> <chembl_id>
CHEMBL2110602

> <chembl_pref_name>
CEPHACETRILE

$$$$

     RDKit          2D

 26 28  0  0  1  0  0  0  0  0999 V2000
    0.7542   -2.5167    0.0000 C   0  0  0  0  0  0  0  0  0  0  0  0
   -0.4583   -2.5167    0.0000 C   0  0  0  0  0  0  0  0  0  0  0  0
   -0.4583   -1.8292    0.0000 C   0  0  0  0  0  0  0  0  0  0  0  0
    0.7542   -1.8292    0.0000 C   0  0  0  0  0  0  0  0  0  0  0  0
    0.1542   -2.8667    0.0000 O   0  0  0  0  0  0  0  0  0  0  0  0
    0.1542   -1.4792    0.0000 O   0  0  0  0  0  0  0  0  0  0  0  0
   -1.0583   -2.8667    0.0000 C   0  0  0  0  0  0  0  0  0  0  0  0
   -1.0583   -1.4792    0.0000 C   0  0  0  0  0  0  0  0  0  0  0  0
   -1.6708   -1.8292    0.0000 C   0  0  0  0  0  0  0  0  0  0  0  0
   -1.6708   -2.5167    0.0000 C   0  0  0  0  0  0  0  0  0  0  0  0
    1.3667   -2.8667    0.0000 C   0  0  0  0  0  0  0  0  0  0  0  0
    1.3667   -1.4792    0.0000 O   0  0  0  0  0  0  0  0  0  0  0  0
    1.9792   -2.5167    0.0000 C   0  0  0  0  0  0  0  0  0  0  0  0
    1.9792   -1.8292    0.0000 C   0  0  0  0  0  0  0  0  0  0  0  0
    0.7542   -3.3792    0.0000 O   0  0  0  0  0  0  0  0  0  0  0  0
    1.3667   -3.5542    0.0000 O   0  0  0  0  0  0  0  0  0  0  0  0
   -1.0583   -3.5542    0.0000 N   0  0  0  0  0  0  0  0  0  0  0  0
   -2.2833   -1.4792    0.0000 N   0  0  0  0  0  0  0  0  0  0  0  0
   -1.0583   -0.7792    0.0000 O   0  0  0  0  0  0  0  0  0  0  0  0
   -2.2833   -2.8667    0.0000 O   0  0  0  0  0  0  0  0  0  0  0  0
    2.5875   -1.4792    0.0000 C   0  0  0  0  0  0  0  0  0  0  0  0
   -0.4625   -3.9042    0.0000 C   0  0  0  0  0  0  0  0  0  0  0  0
   -2.8750   -1.8292    0.0000 C   0  0  0  0  0  0  0  0  0  0  0  0
   -0.4583   -3.2417    0.0000 H   0  0  0  0  0  0  0  0  0  0  0  0
   -0.4583   -1.1167    0.0000 H   0  0  0  0  0  0  0  0  0  0  0  0
    0.7750   -0.9542    0.0000 H   0  0  0  0  0  0  0  0  0  0  0  0
  2  5  1  0
  3  2  1  0
  4  1  1  0
  5  1  1  0
  6  4  1  0
  7  2  1  0
  8  3  1  0
  9 10  1  0
 10  7  1  0
 11  1  1  0
 12  4  1  0
 13 11  1  0
 14 13  1  0
  1 15  1  1
 16 11  2  0
  7 17  1  1
  9 18  1  1
  8 19  1  6
 10 20  1  1
 14 21  1  6
 22 17  1  0
 23 18  1  0
  2 24  1  1
  3 25  1  6
  4 26  1  1
  3  6  1  0
 14 12  1  0
  8  9  1  0
M  END

> <chembl_id>
CHEMBL1167

> <chembl_pref_name>
SPECTINOMYCIN

$$$$

     RDKit          2D

 70 71  0  0  0  0  0  0  0  0999 V2000
   10.6955  -12.6696    0.0000 O   0  0  0  0  0  0  0  0  0  0  0  0
    1.3005   -9.1954    0.0000 N   0  0  0  0  0  0  0  0  0  0  0  0
    1.2956   -8.3705    0.0000 C   0  0  0  0  0  0  0  0  0  0  0  0
    0.4707   -9.2003    0.0000 C   0  0  0  0  0  0  0  0  0  0  0  0
    0.4707   -8.3705    0.0000 C   0  0  0  0  0  0  0  0  0  0  0  0
    2.0866   -9.4478    0.0000 C   0  0  0  0  0  0  0  0  0  0  0  0
    2.0817   -8.1134    0.0000 S   0  0  0  0  0  0  0  0  0  0  0  0
    2.5718   -8.7781    0.0000 C   0  0  0  0  0  0  0  0  0  0  0  0
   -0.2475   -7.9533    0.0000 N   0  0  0  0  0  0  0  0  0  0  0  0
    2.0817  -10.2679    0.0000 C   0  0  0  0  0  0  0  0  0  0  0  0
   -0.9657   -8.3705    0.0000 C   0  0  0  0  0  0  0  0  0  0  0  0
   -0.1116   -9.7826    0.0000 O   0  0  0  0  0  0  0  0  0  0  0  0
    1.3587  -10.6755    0.0000 O   0  0  0  0  0  0  0  0  0  0  0  0
   -0.9657   -9.1954    0.0000 O   0  0  0  0  0  0  0  0  0  0  0  0
   -1.6790   -7.9580    0.0000 C   0  0  0  0  0  0  0  0  0  0  0  0
    2.7901  -10.6901    0.0000 O   0  0  0  0  0  0  0  0  0  0  0  0
    3.2803   -9.1906    0.0000 C   0  0  0  0  0  0  0  0  0  0  0  0
    3.2803   -8.3609    0.0000 C   0  0  0  0  0  0  0  0  0  0  0  0
   -2.3923   -8.3705    0.0000 C   0  0  0  0  0  0  0  0  0  0  0  0
   -3.1056   -7.9533    0.0000 C   0  0  0  0  0  0  0  0  0  0  0  0
   -2.3923   -9.1858    0.0000 C   0  0  0  0  0  0  0  0  0  0  0  0
   -3.8189   -8.3656    0.0000 C   0  0  0  0  0  0  0  0  0  0  0  0
   -3.1007   -9.6030    0.0000 C   0  0  0  0  0  0  0  0  0  0  0  0
   -3.8189   -9.1906    0.0000 C   0  0  0  0  0  0  0  0  0  0  0  0
    1.2859   -7.5457    0.0000 H   0  0  0  0  0  0  0  0  0  0  0  0
    9.5739   -8.6422    0.0000 N   0  0  0  0  0  0  0  0  0  0  0  0
    7.4292   -9.0596    0.0000 N   0  0  0  0  0  0  0  0  0  0  0  0
    6.0026   -9.0644    0.0000 C   0  0  0  0  0  0  0  0  0  0  0  0
   11.0054   -8.6375    0.0000 C   0  0  0  0  0  0  0  0  0  0  0  0
   10.2872   -9.0547    0.0000 C   0  0  0  0  0  0  0  0  0  0  0  0
    6.7159   -8.6520    0.0000 C   0  0  0  0  0  0  0  0  0  0  0  0
    8.8606   -9.0596    0.0000 C   0  0  0  0  0  0  0  0  0  0  0  0
    8.1473   -8.6471    0.0000 C   0  0  0  0  0  0  0  0  0  0  0  0
    5.2844   -8.6520    0.0000 C   0  0  0  0  0  0  0  0  0  0  0  0
    6.0026   -9.8991    0.0000 C   0  0  0  0  0  0  0  0  0  0  0  0
   11.7236   -9.0547    0.0000 C   0  0  0  0  0  0  0  0  0  0  0  0
   11.0054   -7.8174    0.0000 C   0  0  0  0  0  0  0  0  0  0  0  0
    4.5710   -9.0693    0.0000 C   0  0  0  0  0  0  0  0  0  0  0  0
   12.4370   -8.6375    0.0000 C   0  0  0  0  0  0  0  0  0  0  0  0
   11.7139   -7.4001    0.0000 C   0  0  0  0  0  0  0  0  0  0  0  0
    5.2844  -10.3116    0.0000 C   0  0  0  0  0  0  0  0  0  0  0  0
    4.5661   -9.8991    0.0000 C   0  0  0  0  0  0  0  0  0  0  0  0
   12.4370   -7.8125    0.0000 C   0  0  0  0  0  0  0  0  0  0  0  0
    1.3157  -13.3553    0.0000 N   0  0  0  0  0  0  0  0  0  0  0  0
    1.3108  -12.5304    0.0000 C   0  0  0  0  0  0  0  0  0  0  0  0
    0.4859  -13.3601    0.0000 C   0  0  0  0  0  0  0  0  0  0  0  0
    0.4859  -12.5304    0.0000 C   0  0  0  0  0  0  0  0  0  0  0  0
    2.1018  -13.6076    0.0000 C   0  0  0  0  0  0  0  0  0  0  0  0
    2.0969  -12.2732    0.0000 S   0  0  0  0  0  0  0  0  0  0  0  0
    2.5870  -12.9380    0.0000 C   0  0  0  0  0  0  0  0  0  0  0  0
   -0.2323  -12.1131    0.0000 N   0  0  0  0  0  0  0  0  0  0  0  0
    2.0969  -14.4277    0.0000 C   0  0  0  0  0  0  0  0  0  0  0  0
   -0.9505  -12.5304    0.0000 C   0  0  0  0  0  0  0  0  0  0  0  0
   -0.0964  -13.9424    0.0000 O   0  0  0  0  0  0  0  0  0  0  0  0
    1.3739  -14.8353    0.0000 O   0  0  0  0  0  0  0  0  0  0  0  0
   -0.9505  -13.3553    0.0000 O   0  0  0  0  0  0  0  0  0  0  0  0
   -1.6638  -12.1179    0.0000 C   0  0  0  0  0  0  0  0  0  0  0  0
    2.8053  -14.8499    0.0000 O   0  0  0  0  0  0  0  0  0  0  0  0
    3.2955  -13.3505    0.0000 C   0  0  0  0  0  0  0  0  0  0  0  0
    3.2955  -12.5207    0.0000 C   0  0  0  0  0  0  0  0  0  0  0  0
   -2.3771  -12.5304    0.0000 C   0  0  0  0  0  0  0  0  0  0  0  0
   -3.0904  -12.1131    0.0000 C   0  0  0  0  0  0  0  0  0  0  0  0
   -2.3771  -13.3456    0.0000 C   0  0  0  0  0  0  0  0  0  0  0  0
   -3.8037  -12.5255    0.0000 C   0  0  0  0  0  0  0  0  0  0  0  0
   -3.0855  -13.7629    0.0000 C   0  0  0  0  0  0  0  0  0  0  0  0
   -3.8037  -13.3505    0.0000 C   0  0  0  0  0  0  0  0  0  0  0  0
    1.3012  -11.7055    0.0000 H   0  0  0  0  0  0  0  0  0  0  0  0
    8.9571  -11.1670    0.0000 O   0  0  0  0  0  0  0  0  0  0  0  0
   10.6366  -11.1670    0.0000 O   0  0  0  0  0  0  0  0  0  0  0  0
    8.6920  -12.8170    0.0000 O   0  0  0  0  0  0  0  0  0  0  0  0
  3  2  1  0
  4  2  1  0
  5  3  1  0
  6  2  1  0
  7  3  1  0
  8  6  1  0
  5  9  1  1
  6 10  1  6
 11  9  1  0
 12  4  2  0
 13 10  2  0
 14 11  2  0
 15 11  1  0
 16 10  1  0
 17  8  1  0
 18  8  1  0
 19 15  1  0
 20 19  2  0
 21 19  1  0
 22 20  1  0
 23 21  2  0
 24 23  1  0
  3 25  1  6
  7  8  1  0
  4  5  1  0
 24 22  2  0
 27 33  1  0
 28 31  1  0
 29 30  1  0
 30 26  1  0
 31 27  1  0
 32 26  1  0
 33 32  1  0
 34 28  2  0
 35 28  1  0
 36 29  2  0
 37 29  1  0
 38 34  1  0
 39 36  1  0
 40 37  2  0
 41 35  2  0
 42 38  2  0
 43 40  1  0
 43 39  2  0
 41 42  1  0
 45 44  1  0
 46 44  1  0
 47 45  1  0
 48 44  1  0
 49 45  1  0
 50 48  1  0
 47 51  1  1
 48 52  1  6
 53 51  1  0
 54 46  2  0
 55 52  2  0
 56 53  2  0
 57 53  1  0
 58 52  1  0
 59 50  1  0
 60 50  1  0
 61 57  1  0
 62 61  2  0
 63 61  1  0
 64 62  1  0
 65 63  2  0
 66 65  1  0
 45 67  1  6
 49 50  1  0
 46 47  1  0
 66 64  2  0
M  END

> <chembl_id>
CHEMBL3989515

> <chembl_pref_name>
PENICILLIN G BENZATHINE

$$$$

     RDKit          2D

 24 26  0  0  1  0  0  0  0  0999 V2000
    4.4028    0.2427    0.0000 N   0  0  0  0  0  0  0  0  0  0  0  0
    2.9467    0.5893    0.0000 C   0  0  0  0  0  0  0  0  0  0  0  0
    4.0387   -1.2480    0.0000 C   0  0  0  0  0  0  0  0  0  0  0  0
    2.5654   -0.9014    0.0000 C   0  0  0  0  0  0  0  0  0  0  0  0
    5.1654    1.5080    0.0000 C   0  0  0  0  0  0  0  0  0  0  0  0
    2.8254    2.0454    0.0000 S   0  0  0  0  0  0  0  0  0  0  0  0
    4.1948    2.6347    0.0000 C   0  0  0  0  0  0  0  0  0  0  0  0
    1.2905   -1.6806    0.0000 N   0  0  0  0  0  0  0  0  0  0  0  0
    6.6590    1.6292    0.0000 C   0  0  0  0  0  0  0  0  0  0  0  0
    1.3272   -3.1809    0.0000 C   0  0  0  0  0  0  0  0  0  0  0  0
    4.6661   -2.2710    0.0000 O   0  0  0  0  0  0  0  0  0  0  0  0
    7.1727    2.7136    0.0000 O   0  0  0  0  0  0  0  0  0  0  0  0
    7.3417    0.6422    0.0000 O   0  0  0  0  0  0  0  0  0  0  0  0
    2.3809   -3.7550    0.0000 O   0  0  0  0  0  0  0  0  0  0  0  0
    0.0467   -3.9637    0.0000 C   0  0  0  0  0  0  0  0  0  0  0  0
    5.3472    2.9691    0.0000 C   0  0  0  0  0  0  0  0  0  0  0  0
    3.3052    3.4401    0.0000 C   0  0  0  0  0  0  0  0  0  0  0  0
    0.0833   -5.4641    0.0000 C   0  0  0  0  0  0  0  0  0  0  0  0
   -1.1954   -6.2483    0.0000 C   0  0  0  0  0  0  0  0  0  0  0  0
    1.4018   -6.1795    0.0000 C   0  0  0  0  0  0  0  0  0  0  0  0
   -1.1556   -7.7478    0.0000 C   0  0  0  0  0  0  0  0  0  0  0  0
    1.4415   -7.6790    0.0000 C   0  0  0  0  0  0  0  0  0  0  0  0
    0.1628   -8.4631    0.0000 C   0  0  0  0  0  0  0  0  0  0  0  0
    1.9502    0.6729    0.0000 H   0  0  0  0  0  0  0  0  0  0  0  0
  2  1  1  0
  3  1  1  0
  4  3  1  0
  5  1  1  0
  6  2  1  0
  7  5  1  0
  4  8  1  1
  5  9  1  6
 10  8  1  0
 11  3  2  0
 12  9  1  0
 13  9  2  0
 14 10  2  0
 15 10  1  0
 16  7  1  0
 17  7  1  0
 18 15  1  0
 19 18  1  0
 20 18  2  0
 21 19  2  0
 22 20  1  0
 23 21  1  0
  2 24  1  6
  6  7  1  0
  2  4  1  0
 22 23  2  0
M  END

> <chembl_id>
CHEMBL29

> <chembl_pref_name>
BENZYLPENICILLIN

$$$$

     RDKit          2D

 24 27  0  0  0  0  0  0  0  0999 V2000
    2.6024   -2.6977    0.0000 O   0  0  0  0  0  0  0  0  0  0  0  0
    2.6003   -1.4977    0.0000 C   0  0  0  0  0  0  0  0  0  0  0  0
    3.6387   -0.8963    0.0000 O   0  0  0  0  0  0  0  0  0  0  0  0
    1.2990   -0.7500    0.0000 C   0  0  0  0  0  0  0  0  0  0  0  0
    1.2990    0.7500    0.0000 C   0  0  0  0  0  0  0  0  0  0  0  0
    0.0000    1.5000    0.0000 N   0  0  0  0  0  0  0  0  0  0  0  0
    0.0000    3.0008    0.0000 C   0  0  0  0  0  0  0  0  0  0  0  0
    0.7481    4.2096    0.0000 C   0  0  0  0  0  0  0  0  0  0  0  0
   -0.7519    4.2072    0.0000 C   0  0  0  0  0  0  0  0  0  0  0  0
   -1.2990    0.7500    0.0000 C   0  0  0  0  0  0  0  0  0  0  0  0
   -2.5981    1.5000    0.0000 C   0  0  0  0  0  0  0  0  0  0  0  0
   -3.8971    0.7500    0.0000 C   0  0  0  0  0  0  0  0  0  0  0  0
   -5.1968    1.5003    0.0000 N   0  0  0  0  0  0  0  0  0  0  0  0
   -5.1993    3.0004    0.0000 C   0  0  0  0  0  0  0  0  0  0  0  0
   -6.4995    3.7483    0.0000 C   0  0  0  0  0  0  0  0  0  0  0  0
   -7.7974    2.9963    0.0000 N   0  0  0  0  0  0  0  0  0  0  0  0
   -7.7950    1.4963    0.0000 C   0  0  0  0  0  0  0  0  0  0  0  0
   -6.4948    0.7483    0.0000 C   0  0  0  0  0  0  0  0  0  0  0  0
   -3.8971   -0.7500    0.0000 C   0  0  0  0  0  0  0  0  0  0  0  0
   -4.9363   -1.3500    0.0000 F   0  0  0  0  0  0  0  0  0  0  0  0
   -2.5981   -1.5000    0.0000 C   0  0  0  0  0  0  0  0  0  0  0  0
   -1.2990   -0.7500    0.0000 C   0  0  0  0  0  0  0  0  0  0  0  0
    0.0000   -1.5000    0.0000 C   0  0  0  0  0  0  0  0  0  0  0  0
    0.0000   -2.7000    0.0000 O   0  0  0  0  0  0  0  0  0  0  0  0
  1  2  1  0
  2  3  2  0
  2  4  1  0
  4  5  2  0
  5  6  1  0
  6  7  1  0
  7  8  1  0
  8  9  1  0
  9  7  1  0
  6 10  1  0
 10 11  2  0
 11 12  1  0
 12 13  1  0
 13 14  1  0
 14 15  1  0
 15 16  1  0
 16 17  1  0
 17 18  1  0
 18 13  1  0
 12 19  2  0
 19 20  1  0
 19 21  1  0
 21 22  2  0
 22 10  1  0
 22 23  1  0
 23  4  1  0
 23 24  2  0
M  END

> <chembl_id>
CHEMBL8

> <chembl_pref_name>
CIPROFLOXACIN

$$$$

     RDKit          2D

 26 28  0  0  1  0  0  0  0  0999 V2000
    4.2917   -2.9917    0.0000 N   0  0  0  0  0  0  0  0  0  0  0  0
    4.2917   -2.3125    0.0000 C   0  0  0  0  0  0  0  0  0  0  0  0
    3.6042   -2.9917    0.0000 C   0  0  0  0  0  0  0  0  0  0  0  0
    3.6042   -2.3125    0.0000 C   0  0  0  0  0  0  0  0  0  0  0  0
    5.4750   -2.9917    0.0000 C   0  0  0  0  0  0  0  0  0  0  0  0
    4.8792   -1.9625    0.0000 S   0  0  0  0  0  0  0  0  0  0  0  0
    5.4750   -2.3125    0.0000 C   0  0  0  0  0  0  0  0  0  0  0  0
    3.0167   -1.9667    0.0000 N   0  0  0  0  0  0  0  0  0  0  0  0
    2.4292   -2.3125    0.0000 C   0  0  0  0  0  0  0  0  0  0  0  0
    6.0375   -3.4250    0.0000 C   0  0  0  0  0  0  0  0  0  0  0  0
    1.8375   -1.9667    0.0000 C   0  0  0  0  0  0  0  0  0  0  0  0
    3.1167   -3.4792    0.0000 O   0  0  0  0  0  0  0  0  0  0  0  0
    2.4250   -2.9917    0.0000 O   0  0  0  0  0  0  0  0  0  0  0  0
    1.2417   -2.3125    0.0000 C   0  0  0  0  0  0  0  0  0  0  0  0
    6.7042   -3.0875    0.0000 O   0  0  0  0  0  0  0  0  0  0  0  0
    6.0375   -4.1250    0.0000 O   0  0  0  0  0  0  0  0  0  0  0  0
    0.6417   -1.9667    0.0000 C   0  0  0  0  0  0  0  0  0  0  0  0
    1.2417   -2.9917    0.0000 C   0  0  0  0  0  0  0  0  0  0  0  0
    1.8292   -1.2875    0.0000 N   0  0  0  0  0  0  0  0  0  0  0  0
    6.2667   -2.3125    0.0000 C   0  0  0  0  0  0  0  0  0  0  0  0
    5.4667   -1.6250    0.0000 C   0  0  0  0  0  0  0  0  0  0  0  0
    0.0542   -2.9917    0.0000 C   0  0  0  0  0  0  0  0  0  0  0  0
    0.0542   -2.3125    0.0000 C   0  0  0  0  0  0  0  0  0  0  0  0
    0.6417   -3.3375    0.0000 C   0  0  0  0  0  0  0  0  0  0  0  0
   -0.5375   -3.3375    0.0000 O   0  0  0  0  0  0  0  0  0  0  0  0
    4.2875   -1.6250    0.0000 H   0  0  0  0  0  0  0  0  0  0  0  0
  2  1  1  0
  3  1  1  0
  4  3  1  0
  5  1  1  0
  6  2  1  0
  7  5  1  0
  4  8  1  1
  9  8  1  0
  5 10  1  6
 11  9  1  0
 12  3  2  0
 13  9  2  0
 14 11  1  0
 15 10  1  0
 16 10  2  0
 17 14  2  0
 18 14  1  0
 11 19  1  1
 20  7  1  0
 21  7  1  0
 22 24  1  0
 23 17  1  0
 24 18  2  0
 25 22  1  0
  2 26  1  6
  6  7  1  0
  4  2  1  0
 22 23  2  0
M  END

> <chembl_id>
CHEMBL1082

> <chembl_pref_name>
AMOXICILLIN

$$$$

     RDKit          2D

 35 38  0  0  0  0  0  0  0  0999 V2000
    4.4792   -6.8500    0.0000 C   0  0  0  0  0  0  0  0  0  0  0  0
    3.2583   -6.8250    0.0000 C   0  0  0  0  0  0  0  0  0  0  0  0
    4.4833   -6.1500    0.0000 C   0  0  0  0  0  0  0  0  0  0  0  0
    5.7167   -6.8750    0.0000 C   0  0  0  0  0  0  0  0  0  0  0  0
    3.8708   -7.1875    0.0000 C   0  0  0  0  0  0  0  0  0  0  0  0
    3.2708   -6.1250    0.0000 C   0  0  0  0  0  0  0  0  0  0  0  0
    5.0833   -7.2125    0.0000 C   0  0  0  0  0  0  0  0  0  0  0  0
    5.7292   -6.1750    0.0000 C   0  0  0  0  0  0  0  0  0  0  0  0
    2.6292   -7.1625    0.0000 C   0  0  0  0  0  0  0  0  0  0  0  0
    2.6583   -5.7625    0.0000 C   0  0  0  0  0  0  0  0  0  0  0  0
    5.1167   -5.8125    0.0000 C   0  0  0  0  0  0  0  0  0  0  0  0
    3.8958   -5.7875    0.0000 C   0  0  0  0  0  0  0  0  0  0  0  0
    2.0167   -6.8000    0.0000 C   0  0  0  0  0  0  0  0  0  0  0  0
    2.0333   -6.1000    0.0000 C   0  0  0  0  0  0  0  0  0  0  0  0
    6.3292   -7.2375    0.0000 C   0  0  0  0  0  0  0  0  0  0  0  0
    6.3542   -5.8250    0.0000 O   0  0  0  0  0  0  0  0  0  0  0  0
    5.1333   -5.0875    0.0000 N   0  0  0  0  0  0  0  0  0  0  0  0
    5.0708   -7.9250    0.0000 O   0  0  0  0  0  0  0  0  0  0  0  0
    2.6167   -7.8875    0.0000 O   0  0  0  0  0  0  0  0  0  0  0  0
    1.3958   -7.1375    0.0000 C   0  0  0  0  0  0  0  0  0  0  0  0
    4.4583   -7.5625    0.0000 O   0  0  0  0  0  0  0  0  0  0  0  0
    6.3208   -7.9500    0.0000 O   0  0  0  0  0  0  0  0  0  0  0  0
    3.8583   -7.9000    0.0000 O   0  0  0  0  0  0  0  0  0  0  0  0
    2.3042   -5.1458    0.0000 O   0  0  0  0  0  0  0  0  0  0  0  0
    3.8958   -5.0625    0.0000 O   0  0  0  0  0  0  0  0  0  0  0  0
    6.9458   -6.8875    0.0000 N   0  0  0  0  0  0  0  0  0  0  0  0
    3.0083   -5.1458    0.0000 C   0  0  0  0  0  0  0  0  0  0  0  0
    1.4208   -5.7375    0.0000 C   0  0  0  0  0  0  0  0  0  0  0  0
    1.3958   -7.8375    0.0000 O   0  0  0  0  0  0  0  0  0  0  0  0
    0.7917   -6.0750    0.0000 C   0  0  0  0  0  0  0  0  0  0  0  0
    0.7667   -6.7750    0.0000 C   0  0  0  0  0  0  0  0  0  0  0  0
    4.5167   -4.7125    0.0000 C   0  0  0  0  0  0  0  0  0  0  0  0
    5.7542   -4.7375    0.0000 C   0  0  0  0  0  0  0  0  0  0  0  0
    4.5167   -5.4375    0.0000 H   0  0  0  0  0  0  0  0  0  0  0  0
    3.2542   -5.5125    0.0000 H   0  0  0  0  0  0  0  0  0  0  0  0
  2  5  2  0
  3  1  1  0
  4  7  1  0
  5  1  1  0
  6  2  1  0
  7  1  1  0
  8  4  2  0
  9  2  1  0
 10  6  1  0
 11  3  1  0
 12  3  1  0
 13  9  1  0
 14 13  1  0
 15  4  1  0
 16  8  1  0
 11 17  1  6
 18  7  2  0
 19  9  2  0
 20 13  2  0
  1 21  1  6
 22 15  2  0
 23  5  1  0
 10 24  1  1
 12 25  1  6
 26 15  1  0
 27 10  1  0
 28 14  2  0
 29 20  1  0
 30 31  2  0
 31 20  1  0
 32 17  1  0
 33 17  1  0
  3 34  1  6
  6 35  1  6
 12  6  1  0
 11  8  1  0
 10 14  1  0
 30 28  1  0
M  END

> <chembl_id>
CHEMBL1517

> <chembl_pref_name>
OXYTETRACYCLINE

$$$$

     RDKit          2D

 27 29  0  0  1  0  0  0  0  0999 V2000
    1.9542    0.2458    0.0000 N   0  0  0  0  0  0  0  0  0  0  0  0
    1.9542   -0.6375    0.0000 C   0  0  0  0  0  0  0  0  0  0  0  0
    1.0667    0.2458    0.0000 C   0  0  0  0  0  0  0  0  0  0  0  0
    1.0667   -0.6375    0.0000 C   0  0  0  0  0  0  0  0  0  0  0  0
    2.7750    0.5208    0.0000 C   0  0  0  0  0  0  0  0  0  0  0  0
    2.7750   -0.8875    0.0000 S   0  0  0  0  0  0  0  0  0  0  0  0
    3.2792   -0.1792    0.0000 C   0  0  0  0  0  0  0  0  0  0  0  0
    0.2500   -0.4000    0.0000 N   0  0  0  0  0  0  0  0  0  0  0  0
   -0.3750   -1.0042    0.0000 C   0  0  0  0  0  0  0  0  0  0  0  0
    3.5000    1.0333    0.0000 C   0  0  0  0  0  0  0  0  0  0  0  0
    0.6667    0.9833    0.0000 O   0  0  0  0  0  0  0  0  0  0  0  0
   -1.2208   -0.7292    0.0000 C   0  0  0  0  0  0  0  0  0  0  0  0
   -1.8458   -1.3167    0.0000 O   0  0  0  0  0  0  0  0  0  0  0  0
   -0.1833   -1.8292    0.0000 O   0  0  0  0  0  0  0  0  0  0  0  0
    3.4000    1.8958    0.0000 O   0  0  0  0  0  0  0  0  0  0  0  0
    4.2792    0.6583    0.0000 O   0  0  0  0  0  0  0  0  0  0  0  0
    3.9917   -0.7125    0.0000 C   0  0  0  0  0  0  0  0  0  0  0  0
    4.0292    0.2458    0.0000 C   0  0  0  0  0  0  0  0  0  0  0  0
   -2.6625   -1.0792    0.0000 C   0  0  0  0  0  0  0  0  0  0  0  0
   -1.4125    0.0833    0.0000 C   0  0  0  0  0  0  0  0  0  0  0  0
   -2.8833   -0.2167    0.0000 C   0  0  0  0  0  0  0  0  0  0  0  0
   -3.3125   -1.6667    0.0000 C   0  0  0  0  0  0  0  0  0  0  0  0
   -0.7833    0.6958    0.0000 C   0  0  0  0  0  0  0  0  0  0  0  0
   -3.7000    0.0083    0.0000 C   0  0  0  0  0  0  0  0  0  0  0  0
   -4.1333   -1.4375    0.0000 C   0  0  0  0  0  0  0  0  0  0  0  0
   -4.3458   -0.5917    0.0000 C   0  0  0  0  0  0  0  0  0  0  0  0
    1.8069   -1.6266    0.0000 H   0  0  0  0  0  0  0  0  0  0  0  0
  2  1  1  0
  3  1  1  0
  4  3  1  0
  5  1  1  0
  6  2  1  0
  7  5  1  0
  4  8  1  6
  9  8  1  0
  5 10  1  1
 11  3  2  0
 12  9  1  0
 13 12  1  0
 14  9  2  0
 15 10  2  0
 16 10  1  0
 17  7  1  0
 18  7  1  0
 19 13  1  0
 20 12  1  0
 21 19  1  0
 22 19  2  0
 23 20  1  0
 24 21  2  0
 25 22  1  0
 26 25  2  0
  6  7  1  0
  2  4  1  0
 24 26  1  0
  2 27  1  1
M  END

> <chembl_id>
CHEMBL2105612

> <chembl_pref_name>
PROPICILLIN

$$$$

     RDKit          2D

 14 14  0  0  0  0  0  0  0  0999 V2000
    1.1796    1.2488    0.0000 Cl  0  0  0  0  0  0  0  0  0  0  0  0
    0.3178   -2.2409    0.0000 O   0  0  0  0  0  0  0  0  0  0  0  0
   -0.8383   -3.0808    0.0000 O   0  0  0  0  0  0  0  0  0  0  0  0
   -0.3897    0.7389    0.0000 O   0  0  0  0  0  0  0  0  0  0  0  0
   -0.7327   -0.8750    0.0000 N   0  0  0  0  0  0  0  0  0  0  0  0
   -0.5027   -2.3271    0.0000 N   0  0  0  0  0  0  0  0  0  0  0  0
   -2.0676   -0.8750    0.0000 N   0  0  0  0  0  0  0  0  0  0  0  0
   -0.9877   -1.6596    0.0000 C   0  0  0  0  0  0  0  0  0  0  0  0
   -1.4002   -0.3901    0.0000 C   0  0  0  0  0  0  0  0  0  0  0  0
   -1.8127   -1.6596    0.0000 C   0  0  0  0  0  0  0  0  0  0  0  0
    0.0519   -0.6201    0.0000 C   0  0  0  0  0  0  0  0  0  0  0  0
    0.2234    0.1869    0.0000 C   0  0  0  0  0  0  0  0  0  0  0  0
   -1.4002    0.4349    0.0000 C   0  0  0  0  0  0  0  0  0  0  0  0
    1.0081    0.4418    0.0000 C   0  0  0  0  0  0  0  0  0  0  0  0
  1 14  1  0
  2  6  1  0
  3  6  2  0
  4 12  1  0
  5  8  1  0
  5  9  1  0
  5 11  1  0
  6  8  1  0
  7  9  2  0
  7 10  1  0
  8 10  2  0
  9 13  1  0
 11 12  1  0
 12 14  1  0
M  CHG  2   2  -1   6   1
M  END

> <chembl_id>
CHEMBL1449676

> <chembl_pref_name>
ORNIDAZOLE

$$$$

     RDKit          2D

 54 56  0  0  0  0  0  0  0  0999 V2000
    3.1579   -8.5506    0.0000 C   0  0  0  0  0  0  0  0  0  0  0  0
    0.5150   -7.2729    0.0000 C   0  0  0  0  0  0  0  0  0  0  0  0
   -0.9037   -7.2778    0.0000 C   0  0  0  0  0  0  0  0  0  0  0  0
   -1.6178   -5.2228    0.0000 C   0  0  0  0  0  0  0  0  0  0  0  0
   -0.1895   -7.6860    0.0000 C   0  0  0  0  0  0  0  0  0  0  0  0
    2.7450   -9.2600    0.0000 C   0  0  0  0  0  0  0  0  0  0  0  0
    1.2292   -6.0389    0.0000 C   0  0  0  0  0  0  0  0  0  0  0  0
    0.5150   -6.4471    0.0000 C   0  0  0  0  0  0  0  0  0  0  0  0
   -0.9037   -3.9985    0.0000 C   0  0  0  0  0  0  0  0  0  0  0  0
   -0.9037   -6.4568    0.0000 O   0  0  0  0  0  0  0  0  0  0  0  0
   -0.9037   -4.8146    0.0000 C   0  0  0  0  0  0  0  0  0  0  0  0
   -0.1991   -3.5854    0.0000 C   0  0  0  0  0  0  0  0  0  0  0  0
    3.1531   -7.4527    0.0000 O   0  0  0  0  0  0  0  0  0  0  0  0
   -1.1028  -10.8633    0.0000 C   0  0  0  0  0  0  0  0  0  0  0  0
    1.9239   -9.2600    0.0000 C   0  0  0  0  0  0  0  0  0  0  0  0
    1.2292   -5.2228    0.0000 C   0  0  0  0  0  0  0  0  0  0  0  0
    0.1360  -10.1539    0.0000 C   0  0  0  0  0  0  0  0  0  0  0  0
   -0.2720  -10.8633    0.0000 C   0  0  0  0  0  0  0  0  0  0  0  0
    2.7450   -7.8364    0.0000 O   0  0  0  0  0  0  0  0  0  0  0  0
   -0.2720   -9.4397    0.0000 O   0  0  0  0  0  0  0  0  0  0  0  0
   -1.6178   -6.0486    0.0000 C   0  0  0  0  0  0  0  0  0  0  0  0
   -1.5158  -10.1539    0.0000 C   0  0  0  0  0  0  0  0  0  0  0  0
    1.2340   -7.6811    0.0000 O   0  0  0  0  0  0  0  0  0  0  0  0
   -1.1028   -9.4397    0.0000 C   0  0  0  0  0  0  0  0  0  0  0  0
    0.5150   -3.9935    0.0000 C   0  0  0  0  0  0  0  0  0  0  0  0
    0.5150   -4.8146    0.0000 C   0  0  0  0  0  0  0  0  0  0  0  0
    1.5061   -8.5506    0.0000 C   0  0  0  0  0  0  0  0  0  0  0  0
    1.5109   -9.9790    0.0000 N   0  0  0  0  0  0  0  0  0  0  0  0
   -1.6227   -7.6907    0.0000 O   0  0  0  0  0  0  0  0  0  0  0  0
    1.9239   -7.8364    0.0000 C   0  0  0  0  0  0  0  0  0  0  0  0
   -0.1991   -2.7595    0.0000 O   0  0  0  0  0  0  0  0  0  0  0  0
   -2.0356   -4.5037    0.0000 O   0  0  0  0  0  0  0  0  0  0  0  0
    3.1628   -9.9790    0.0000 O   0  0  0  0  0  0  0  0  0  0  0  0
    1.6373   -4.5037    0.0000 O   0  0  0  0  0  0  0  0  0  0  0  0
   -0.1944   -5.2325    0.0000 O   0  0  0  0  0  0  0  0  0  0  0  0
   -1.8169  -11.2714    0.0000 O   0  0  0  0  0  0  0  0  0  0  0  0
   -2.3417  -10.1539    0.0000 O   0  0  0  0  0  0  0  0  0  0  0  0
   -2.4437   -5.2228    0.0000 C   0  0  0  0  0  0  0  0  0  0  0  0
   -0.1895   -8.5119    0.0000 C   0  0  0  0  0  0  0  0  0  0  0  0
   -0.1991   -6.0340    0.0000 C   0  0  0  0  0  0  0  0  0  0  0  0
   -1.6227   -3.5854    0.0000 C   0  0  0  0  0  0  0  0  0  0  0  0
   -1.1028  -11.6940    0.0000 C   0  0  0  0  0  0  0  0  0  0  0  0
    2.0600   -5.2228    0.0000 C   0  0  0  0  0  0  0  0  0  0  0  0
   -2.3369   -6.4617    0.0000 C   0  0  0  0  0  0  0  0  0  0  0  0
   -1.5109   -8.7208    0.0000 C   0  0  0  0  0  0  0  0  0  0  0  0
    1.2340   -3.5758    0.0000 C   0  0  0  0  0  0  0  0  0  0  0  0
    0.6850   -9.9790    0.0000 C   0  0  0  0  0  0  0  0  0  0  0  0
    1.9239  -10.6932    0.0000 C   0  0  0  0  0  0  0  0  0  0  0  0
    1.5109   -7.1175    0.0000 C   0  0  0  0  0  0  0  0  0  0  0  0
   -2.5312  -10.8534    0.0000 C   0  0  0  0  0  0  0  0  0  0  0  0
   -3.0510   -6.0486    0.0000 C   0  0  0  0  0  0  0  0  0  0  0  0
    3.8673   -8.9636    0.0000 H   0  0  0  0  0  0  0  0  0  0  0  0
    2.0600   -6.0389    0.0000 H   0  0  0  0  0  0  0  0  0  0  0  0
    0.8502  -10.5668    0.0000 H   0  0  0  0  0  0  0  0  0  0  0  0
  2  8  1  0
  3  5  1  0
  4 11  1  0
  5  2  1  0
  6  1  1  0
  7 13  1  0
  8  7  1  0
  9 12  1  0
 10  3  1  0
 11  9  1  0
 12 25  1  0
 13  1  1  0
 14 18  1  0
 15  6  1  0
 16  7  1  0
 17 23  1  0
 18 17  1  0
 19  1  1  0
 20 17  1  0
 21 10  1  0
 22 24  1  0
  2 23  1  6
 24 20  1  0
 25 26  1  0
 26 16  1  0
 27 30  1  0
 15 28  1  1
 29  3  2  0
 30 19  1  0
 31 12  2  0
  4 32  1  1
  6 33  1  6
 16 34  1  1
 11 35  1  1
 14 36  1  1
 22 37  1  1
 38  4  1  0
  5 39  1  1
  8 40  1  6
  9 41  1  1
 42 14  1  0
 43 16  1  0
 21 44  1  6
 24 45  1  6
 25 46  1  6
 47 28  1  0
 48 28  1  0
 30 49  1  1
 50 36  1  0
 51 44  1  0
  1 52  1  6
  7 53  1  1
 17 54  1  6
 27 15  1  0
 21  4  1  0
 22 14  1  0
M  END

> <chembl_id>
CHEMBL532

> <chembl_pref_name>
ERYTHROMYCIN

$$$$

     RDKit          2D

 35 38  0  0  1  0  0  0  0  0999 V2000
    2.5792   -6.4583    0.0000 N   0  0  0  0  0  0  0  0  0  0  0  0
    1.8750   -6.4625    0.0000 C   0  0  0  0  0  0  0  0  0  0  0  0
    2.5792   -5.7500    0.0000 C   0  0  0  0  0  0  0  0  0  0  0  0
    1.8750   -5.7500    0.0000 C   0  0  0  0  0  0  0  0  0  0  0  0
    6.2042   -6.4083    0.0000 N   0  0  0  0  0  0  0  0  0  0  0  0
    5.6333   -6.8292    0.0000 C   0  0  0  0  0  0  0  0  0  0  0  0
    3.1833   -6.8083    0.0000 C   0  0  0  0  0  0  0  0  0  0  0  0
    5.8500   -7.5000    0.0000 N   0  0  0  0  0  0  0  0  0  0  0  0
    6.5583   -7.5000    0.0000 N   0  0  0  0  0  0  0  0  0  0  0  0
    6.7792   -6.8292    0.0000 N   0  0  0  0  0  0  0  0  0  0  0  0
    3.1917   -5.4000    0.0000 S   0  0  0  0  0  0  0  0  0  0  0  0
    3.7958   -6.4625    0.0000 C   0  0  0  0  0  0  0  0  0  0  0  0
   -1.1625   -5.3292    0.0000 N   0  0  0  0  0  0  0  0  0  0  0  0
   -1.7333   -5.7500    0.0000 C   0  0  0  0  0  0  0  0  0  0  0  0
    1.2542   -5.3917    0.0000 N   0  0  0  0  0  0  0  0  0  0  0  0
   -0.5875   -5.7500    0.0000 C   0  0  0  0  0  0  0  0  0  0  0  0
    3.1792   -7.5167    0.0000 C   0  0  0  0  0  0  0  0  0  0  0  0
   -1.5167   -6.4208    0.0000 S   0  0  0  0  0  0  0  0  0  0  0  0
    0.6375   -5.7500    0.0000 C   0  0  0  0  0  0  0  0  0  0  0  0
    5.0208   -6.4708    0.0000 S   0  0  0  0  0  0  0  0  0  0  0  0
    0.0250   -5.3958    0.0000 C   0  0  0  0  0  0  0  0  0  0  0  0
    6.2042   -5.7000    0.0000 C   0  0  0  0  0  0  0  0  0  0  0  0
    3.8000   -5.7583    0.0000 C   0  0  0  0  0  0  0  0  0  0  0  0
   -0.8083   -6.4208    0.0000 C   0  0  0  0  0  0  0  0  0  0  0  0
    1.3750   -6.9625    0.0000 O   0  0  0  0  0  0  0  0  0  0  0  0
    4.4042   -6.8208    0.0000 C   0  0  0  0  0  0  0  0  0  0  0  0
    2.5625   -7.8667    0.0000 O   0  0  0  0  0  0  0  0  0  0  0  0
    0.6375   -6.4583    0.0000 O   0  0  0  0  0  0  0  0  0  0  0  0
   -2.3500   -5.3917    0.0000 N   0  0  0  0  0  0  0  0  0  0  0  0
    6.8208   -5.3458    0.0000 C   0  0  0  0  0  0  0  0  0  0  0  0
    7.4333   -5.7000    0.0000 N   0  0  0  0  0  0  0  0  0  0  0  0
    3.7875   -7.8750    0.0000 O   0  0  0  0  0  0  0  0  0  0  0  0
    7.4333   -6.4083    0.0000 C   0  0  0  0  0  0  0  0  0  0  0  0
    8.0458   -5.3458    0.0000 C   0  0  0  0  0  0  0  0  0  0  0  0
    2.5750   -5.0417    0.0000 H   0  0  0  0  0  0  0  0  0  0  0  0
  2  1  1  0
  3  1  1  0
  4  3  1  0
  5  6  1  0
  6 20  1  0
  7  1  1  0
  8  6  2  0
  9  8  1  0
 10  5  1  0
 11  3  1  0
 12  7  2  0
 13 16  1  0
 14 13  2  0
  4 15  1  1
 16 21  1  0
 17  7  1  0
 18 24  1  0
 19 15  1  0
 20 26  1  0
 21 19  1  0
 22  5  1  0
 23 11  1  0
 24 16  2  0
 25  2  2  0
 26 12  1  0
 27 17  2  0
 28 19  2  0
 29 14  1  0
 30 22  1  0
 31 30  1  0
 32 17  1  0
 33 31  1  0
 34 31  1  0
  3 35  1  6
  2  4  1  0
 23 12  1  0
 10  9  2  0
 18 14  1  0
M  END

> <chembl_id>
CHEMBL1296

> <chembl_pref_name>
CEFOTIAM

$$$$

     RDKit          2D

 40 44  0  0  1  0  0  0  0  0999 V2000
    2.4667   -2.2542    0.0000 C   0  0  0  0  0  0  0  0  0  0  0  0
    1.2667   -2.2542    0.0000 C   0  0  0  0  0  0  0  0  0  0  0  0
    3.6667   -2.2750    0.0000 C   0  0  0  0  0  0  0  0  0  0  0  0
    1.8792   -2.6042    0.0000 C   0  0  0  0  0  0  0  0  0  0  0  0
    3.0792   -2.6042    0.0000 C   0  0  0  0  0  0  0  0  0  0  0  0
    2.4667   -1.5167    0.0000 C   0  0  0  0  0  0  0  0  0  0  0  0
    3.6667   -1.5167    0.0000 C   0  0  0  0  0  0  0  0  0  0  0  0
    0.6750   -2.5792    0.0000 C   0  0  0  0  0  0  0  0  0  0  0  0
    1.2667   -1.5375    0.0000 C   0  0  0  0  0  0  0  0  0  0  0  0
    0.0875   -2.2375    0.0000 C   0  0  0  0  0  0  0  0  0  0  0  0
    0.6750   -1.1875    0.0000 C   0  0  0  0  0  0  0  0  0  0  0  0
    0.0875   -1.5375    0.0000 C   0  0  0  0  0  0  0  0  0  0  0  0
    3.0792   -1.1667    0.0000 C   0  0  0  0  0  0  0  0  0  0  0  0
    4.2292   -2.6917    0.0000 C   0  0  0  0  0  0  0  0  0  0  0  0
    1.8792   -1.1875    0.0000 C   0  0  0  0  0  0  0  0  0  0  0  0
    4.1167   -3.4375    0.0000 N   0  0  0  0  0  0  0  0  0  0  0  0
    4.0917   -4.5500    0.0000 N   0  0  0  0  0  0  0  0  0  0  0  0
    4.4875   -4.0292    0.0000 C   0  0  0  0  0  0  0  0  0  0  0  0
    3.0875   -3.3250    0.0000 O   0  0  0  0  0  0  0  0  0  0  0  0
    0.6750   -3.2792    0.0000 O   0  0  0  0  0  0  0  0  0  0  0  0
    3.1000   -0.4667    0.0000 N   0  0  0  0  0  0  0  0  0  0  0  0
   -0.5250   -2.5792    0.0000 C   0  0  0  0  0  0  0  0  0  0  0  0
    2.4792   -3.0625    0.0000 O   0  0  0  0  0  0  0  0  0  0  0  0
    4.8500   -2.5042    0.0000 O   0  0  0  0  0  0  0  0  0  0  0  0
    1.8667   -3.2625    0.0000 O   0  0  0  0  0  0  0  0  0  0  0  0
    4.2375   -1.1167    0.0000 O   0  0  0  0  0  0  0  0  0  0  0  0
    0.3042   -0.5542    0.0000 O   0  0  0  0  0  0  0  0  0  0  0  0
   -0.5250   -1.1875    0.0000 C   0  0  0  0  0  0  0  0  0  0  0  0
    1.1167   -0.6000    0.0000 C   0  0  0  0  0  0  0  0  0  0  0  0
   -0.5250   -3.3042    0.0000 O   0  0  0  0  0  0  0  0  0  0  0  0
    3.3625   -4.2792    0.0000 C   0  0  0  0  0  0  0  0  0  0  0  0
    4.1667   -5.2792    0.0000 C   0  0  0  0  0  0  0  0  0  0  0  0
   -1.1083   -1.5375    0.0000 C   0  0  0  0  0  0  0  0  0  0  0  0
   -1.1083   -2.2542    0.0000 C   0  0  0  0  0  0  0  0  0  0  0  0
    2.5042   -0.1167    0.0000 C   0  0  0  0  0  0  0  0  0  0  0  0
    3.7042   -0.1500    0.0000 C   0  0  0  0  0  0  0  0  0  0  0  0
    2.9667   -4.9750    0.0000 C   0  0  0  0  0  0  0  0  0  0  0  0
    3.5250   -5.5917    0.0000 C   0  0  0  0  0  0  0  0  0  0  0  0
    2.4792   -0.8500    0.0000 H   0  0  0  0  0  0  0  0  0  0  0  0
    1.5667   -0.8875    0.0000 H   0  0  0  0  0  0  0  0  0  0  0  0
  2  4  2  0
  3  5  1  0
  4  1  1  0
  5  1  1  0
  6  1  1  0
  7 13  1  0
  8  2  1  0
  9 15  1  0
 10  8  1  0
 11  9  1  0
 12 11  1  0
 13  6  1  0
 14  3  1  0
 15  6  1  0
 16 14  1  0
 17 18  1  0
 18 16  1  0
 19  5  2  0
 20  8  2  0
 13 21  1  6
 22 10  1  0
  1 23  1  6
 24 14  2  0
 25  4  1  0
 26  7  1  0
 11 27  1  1
 28 12  1  0
 11 29  1  6
 30 22  1  0
 31 17  1  0
 32 17  1  0
 33 28  2  0
 34 22  2  0
 35 21  1  0
 36 21  1  0
 37 31  1  0
 38 32  1  0
  6 39  1  6
  9 40  1  6
  9  2  1  0
  7  3  2  0
 12 10  2  0
 33 34  1  0
 37 38  1  0
M  END

> <chembl_id>
CHEMBL1237046

> <chembl_pref_name>
ROLITETRACYCLINE

$$$$

     RDKit          2D

 37 40  0  0  1  0  0  0  0  0999 V2000
    1.6875   -3.4750    0.0000 N   0  0  0  0  0  0  0  0  0  0  0  0
    0.9792   -3.4750    0.0000 C   0  0  0  0  0  0  0  0  0  0  0  0
    0.9792   -2.7417    0.0000 C   0  0  0  0  0  0  0  0  0  0  0  0
    1.6875   -2.7542    0.0000 C   0  0  0  0  0  0  0  0  0  0  0  0
    4.7500   -4.5167    0.0000 N   0  0  0  0  0  0  0  0  0  0  0  0
    4.7500   -3.8167    0.0000 C   0  0  0  0  0  0  0  0  0  0  0  0
    2.3042   -3.8292    0.0000 C   0  0  0  0  0  0  0  0  0  0  0  0
    5.9542   -4.4875    0.0000 C   0  0  0  0  0  0  0  0  0  0  0  0
    5.9417   -3.7917    0.0000 N   0  0  0  0  0  0  0  0  0  0  0  0
   -1.4833   -2.7500    0.0000 C   0  0  0  0  0  0  0  0  0  0  0  0
    5.3750   -4.8542    0.0000 C   0  0  0  0  0  0  0  0  0  0  0  0
   -0.8708   -2.3917    0.0000 C   0  0  0  0  0  0  0  0  0  0  0  0
    5.3292   -3.4542    0.0000 N   0  0  0  0  0  0  0  0  0  0  0  0
   -2.0583   -2.3292    0.0000 N   0  0  0  0  0  0  0  0  0  0  0  0
    0.3625   -2.3917    0.0000 N   0  0  0  0  0  0  0  0  0  0  0  0
   -0.2583   -2.7417    0.0000 C   0  0  0  0  0  0  0  0  0  0  0  0
    2.3042   -2.3917    0.0000 S   0  0  0  0  0  0  0  0  0  0  0  0
    2.9167   -3.4750    0.0000 C   0  0  0  0  0  0  0  0  0  0  0  0
   -2.6250   -2.7500    0.0000 C   0  0  0  0  0  0  0  0  0  0  0  0
    2.3042   -4.5417    0.0000 C   0  0  0  0  0  0  0  0  0  0  0  0
   -1.7000   -3.4167    0.0000 C   0  0  0  0  0  0  0  0  0  0  0  0
   -2.4083   -3.4167    0.0000 S   0  0  0  0  0  0  0  0  0  0  0  0
    4.1417   -3.4750    0.0000 S   0  0  0  0  0  0  0  0  0  0  0  0
    2.9167   -2.7542    0.0000 C   0  0  0  0  0  0  0  0  0  0  0  0
   -0.8708   -1.6792    0.0000 N   0  0  0  0  0  0  0  0  0  0  0  0
    0.5000   -3.9667    0.0000 O   0  0  0  0  0  0  0  0  0  0  0  0
    3.5375   -3.8167    0.0000 C   0  0  0  0  0  0  0  0  0  0  0  0
   -0.2500   -3.4542    0.0000 O   0  0  0  0  0  0  0  0  0  0  0  0
    5.3625   -5.5625    0.0000 O   0  0  0  0  0  0  0  0  0  0  0  0
    2.9125   -4.8792    0.0000 O   0  0  0  0  0  0  0  0  0  0  0  0
    1.6917   -4.8875    0.0000 O   0  0  0  0  0  0  0  0  0  0  0  0
    6.5625   -4.8375    0.0000 O   0  0  0  0  0  0  0  0  0  0  0  0
   -3.2458   -2.3917    0.0000 N   0  0  0  0  0  0  0  0  0  0  0  0
    5.3125   -2.7625    0.0000 C   0  0  0  0  0  0  0  0  0  0  0  0
   -0.2583   -1.3292    0.0000 O   0  0  0  0  0  0  0  0  0  0  0  0
   -0.2583   -0.6167    0.0000 C   0  0  0  0  0  0  0  0  0  0  0  0
    1.6542   -2.0667    0.0000 H   0  0  0  0  0  0  0  0  0  0  0  0
  2  1  1  0
  3  4  1  0
  4  1  1  0
  5  6  2  0
  6 23  1  0
  7  1  1  0
  8  9  2  0
  9 13  1  0
 10 12  1  0
 11  5  1  0
 12 16  1  0
 13  6  1  0
 14 10  1  0
  3 15  1  1
 16 15  1  0
 17  4  1  0
 18  7  2  0
 19 14  2  0
 20  7  1  0
 21 10  2  0
 22 21  1  0
 23 27  1  0
 24 18  1  0
 25 12  2  0
 26  2  2  0
 27 18  1  0
 28 16  2  0
 29 11  2  0
 30 20  1  0
 31 20  2  0
 32  8  1  0
 33 19  1  0
 34 13  1  0
 35 25  1  0
 36 35  1  0
  4 37  1  6
  3  2  1  0
 24 17  1  0
  8 11  1  0
 22 19  1  0
M  END

> <chembl_id>
CHEMBL161

> <chembl_pref_name>
CEFTRIAXONE

$$$$

     RDKit          2D

 29 31  0  0  0  0  0  0  0  0999 V2000
    2.6542   -7.0000    0.0000 C   0  0  0  0  0  0  0  0  0  0  0  0
    3.3625   -7.7292    0.0000 N   0  0  0  0  0  0  0  0  0  0  0  0
    2.6542   -7.7292    0.0000 C   0  0  0  0  0  0  0  0  0  0  0  0
    3.3625   -7.0042    0.0000 C   0  0  0  0  0  0  0  0  0  0  0  0
    3.9917   -8.0917    0.0000 C   0  0  0  0  0  0  0  0  0  0  0  0
    3.9917   -6.6417    0.0000 S   0  0  0  0  0  0  0  0  0  0  0  0
    2.0375   -6.6417    0.0000 N   0  0  0  0  0  0  0  0  0  0  0  0
    4.6167   -7.7292    0.0000 C   0  0  0  0  0  0  0  0  0  0  0  0
    3.9917   -8.8167    0.0000 C   0  0  0  0  0  0  0  0  0  0  0  0
    1.4167   -7.0000    0.0000 C   0  0  0  0  0  0  0  0  0  0  0  0
    6.4625   -8.0792    0.0000 C   0  0  0  0  0  0  0  0  0  0  0  0
    0.8042   -6.6417    0.0000 C   0  0  0  0  0  0  0  0  0  0  0  0
    0.1917   -7.0042    0.0000 C   0  0  0  0  0  0  0  0  0  0  0  0
    4.6167   -7.0042    0.0000 C   0  0  0  0  0  0  0  0  0  0  0  0
    2.1667   -8.2292    0.0000 O   0  0  0  0  0  0  0  0  0  0  0  0
   -0.3833   -6.5792    0.0000 S   0  0  0  0  0  0  0  0  0  0  0  0
    2.6500   -6.2917    0.0000 O   0  0  0  0  0  0  0  0  0  0  0  0
    5.2375   -8.0875    0.0000 C   0  0  0  0  0  0  0  0  0  0  0  0
    4.6042   -9.1542    0.0000 O   0  0  0  0  0  0  0  0  0  0  0  0
    5.8417   -7.7292    0.0000 O   0  0  0  0  0  0  0  0  0  0  0  0
   -0.9500   -7.0042    0.0000 C   0  0  0  0  0  0  0  0  0  0  0  0
    6.4542   -8.7875    0.0000 O   0  0  0  0  0  0  0  0  0  0  0  0
    3.3667   -9.1625    0.0000 O   0  0  0  0  0  0  0  0  0  0  0  0
    1.4250   -7.7042    0.0000 O   0  0  0  0  0  0  0  0  0  0  0  0
   -0.0250   -7.6750    0.0000 C   0  0  0  0  0  0  0  0  0  0  0  0
   -0.7333   -7.6750    0.0000 C   0  0  0  0  0  0  0  0  0  0  0  0
    7.0625   -7.7125    0.0000 N   0  0  0  0  0  0  0  0  0  0  0  0
    2.0292   -5.9375    0.0000 C   0  0  0  0  0  0  0  0  0  0  0  0
    3.3292   -6.3167    0.0000 H   0  0  0  0  0  0  0  0  0  0  0  0
  2  4  1  0
  3  1  1  0
  4  1  1  0
  5  2  1  0
  6  4  1  0
  1  7  1  1
  8 14  1  0
  9  5  1  0
 10  7  1  0
 11 20  1  0
 12 10  1  0
 13 12  1  0
 14  6  1  0
 15  3  2  0
 16 13  1  0
 17  1  1  0
 18  8  1  0
 19  9  1  0
 20 18  1  0
 21 16  1  0
 22 11  2  0
 23  9  2  0
 24 10  2  0
 25 13  2  0
 26 25  1  0
 27 11  1  0
 28 17  1  0
  4 29  1  6
  2  3  1  0
  5  8  2  0
 26 21  2  0
M  END

> <chembl_id>
CHEMBL996

> <chembl_pref_name>
CEFOXITIN

$$$$

     RDKit          2D

 17 18  0  0  0  0  0  0  0  0999 V2000
    6.8083   -5.2000    0.0000 N   0  0  0  0  0  0  0  0  0  0  0  0
    6.2333   -4.7792    0.0000 C   0  0  0  0  0  0  0  0  0  0  0  0
    5.6625   -5.2000    0.0000 N   0  0  0  0  0  0  0  0  0  0  0  0
    3.2875   -3.7833    0.0000 C   0  0  0  0  0  0  0  0  0  0  0  0
    2.6708   -4.1292    0.0000 N   0  0  0  0  0  0  0  0  0  0  0  0
    6.5875   -5.8750    0.0000 C   0  0  0  0  0  0  0  0  0  0  0  0
    5.8792   -5.8750    0.0000 C   0  0  0  0  0  0  0  0  0  0  0  0
    3.8625   -4.2000    0.0000 O   0  0  0  0  0  0  0  0  0  0  0  0
    5.0417   -4.8417    0.0000 N   0  0  0  0  0  0  0  0  0  0  0  0
    3.5042   -3.1083    0.0000 C   0  0  0  0  0  0  0  0  0  0  0  0
    4.4333   -3.7833    0.0000 C   0  0  0  0  0  0  0  0  0  0  0  0
    5.0458   -4.1333    0.0000 C   0  0  0  0  0  0  0  0  0  0  0  0
    4.2167   -3.1083    0.0000 C   0  0  0  0  0  0  0  0  0  0  0  0
    2.0583   -3.7708    0.0000 O   0  0  0  0  0  0  0  0  0  0  0  0
    2.6625   -4.8375    0.0000 O   0  0  0  0  0  0  0  0  0  0  0  0
    6.2333   -4.0708    0.0000 O   0  0  0  0  0  0  0  0  0  0  0  0
    7.0042   -6.4458    0.0000 O   0  0  0  0  0  0  0  0  0  0  0  0
  2  1  1  0
  3  2  1  0
  4  8  1  0
  5  4  1  0
  6  1  1  0
  7  6  1  0
  8 11  1  0
  9  3  1  0
 10 13  1  0
 11 12  1  0
 12  9  2  0
 13 11  2  0
 14  5  1  0
 15  5  2  0
 16  2  2  0
 17  6  2  0
  7  3  1  0
 10  4  2  0
M  CHG  2   5   1  14  -1
M  END

> <chembl_id>
CHEMBL572

> <chembl_pref_name>
NITROFURANTOIN

$$$$

     RDKit          2D

 39 42  0  0  1  0  0  0  0  0999 V2000
    5.4851   -3.0100    0.0000 S   0  0  0  0  0  0  0  0  0  0  0  0
    0.3083   -1.2874    0.0000 S   0  0  0  0  0  0  0  0  0  0  0  0
    3.3545   -4.8323    0.0000 O   0  0  0  0  0  0  0  0  0  0  0  0
    6.1922   -5.9021    0.0000 O   0  0  0  0  0  0  0  0  0  0  0  0
    4.7507   -5.9021    0.0000 O   0  0  0  0  0  0  0  0  0  0  0  0
    3.1097   -1.9945    0.0000 O   0  0  0  0  0  0  0  0  0  0  0  0
    1.8314   -4.1523    0.0000 O   0  0  0  0  0  0  0  0  0  0  0  0
    0.7343   -3.5993    0.0000 O   0  0  0  0  0  0  0  0  0  0  0  0
    0.0000   -4.7870    0.0000 O   0  0  0  0  0  0  0  0  0  0  0  0
    4.7689   -4.2521    0.0000 N   0  0  0  0  0  0  0  0  0  0  0  0
    3.1097   -3.4180    0.0000 N   0  0  0  0  0  0  0  0  0  0  0  0
    7.6429   -4.2702    0.0000 N   0  0  0  0  0  0  0  0  0  0  0  0
    1.4325   -3.4271    0.0000 N   0  0  0  0  0  0  0  0  0  0  0  0
    1.6138   -1.3055    0.0000 N   0  0  0  0  0  0  0  0  0  0  0  0
    0.9701    0.0000    0.0000 N   0  0  0  0  0  0  0  0  0  0  0  0
    4.7689   -3.4180    0.0000 C   0  0  0  0  0  0  0  0  0  0  0  0
    3.9348   -3.4180    0.0000 C   0  0  0  0  0  0  0  0  0  0  0  0
    3.9348   -4.2521    0.0000 C   0  0  0  0  0  0  0  0  0  0  0  0
    5.4851   -4.6782    0.0000 C   0  0  0  0  0  0  0  0  0  0  0  0
    6.2194   -4.2521    0.0000 C   0  0  0  0  0  0  0  0  0  0  0  0
    6.2194   -3.4180    0.0000 C   0  0  0  0  0  0  0  0  0  0  0  0
    5.4851   -5.5032    0.0000 C   0  0  0  0  0  0  0  0  0  0  0  0
    2.7018   -2.7471    0.0000 C   0  0  0  0  0  0  0  0  0  0  0  0
    6.9175   -4.6782    0.0000 C   0  0  0  0  0  0  0  0  0  0  0  0
    1.8495   -2.7471    0.0000 C   0  0  0  0  0  0  0  0  0  0  0  0
    1.3690   -2.0762    0.0000 C   0  0  0  0  0  0  0  0  0  0  0  0
    0.5531   -2.0762    0.0000 C   0  0  0  0  0  0  0  0  0  0  0  0
    8.3409   -4.6872    0.0000 C   0  0  0  0  0  0  0  0  0  0  0  0
    7.6429   -3.4452    0.0000 C   0  0  0  0  0  0  0  0  0  0  0  0
    0.9701   -0.8160    0.0000 C   0  0  0  0  0  0  0  0  0  0  0  0
    1.4143   -4.8414    0.0000 C   0  0  0  0  0  0  0  0  0  0  0  0
    9.0662   -4.2793    0.0000 C   0  0  0  0  0  0  0  0  0  0  0  0
    8.3500   -3.0372    0.0000 C   0  0  0  0  0  0  0  0  0  0  0  0
    9.0662   -3.4543    0.0000 C   0  0  0  0  0  0  0  0  0  0  0  0
    0.7343   -4.4062    0.0000 C   0  0  0  0  0  0  0  0  0  0  0  0
    2.0943   -5.2675    0.0000 C   0  0  0  0  0  0  0  0  0  0  0  0
    0.9701   -5.5304    0.0000 C   0  0  0  0  0  0  0  0  0  0  0  0
    4.7779   -2.6474    0.0000 H   0  0  0  0  0  0  0  0  0  0  0  0
    3.9348   -2.5929    0.0000 H   0  0  0  0  0  0  0  0  0  0  0  0
  1 16  1  0
  1 21  1  0
  2 27  1  0
  2 30  1  0
  3 18  2  0
  4 22  1  0
  5 22  2  0
  6 23  2  0
  7 13  1  0
  7 31  1  0
  8 35  2  0
  9 35  1  0
 10 16  1  0
 10 18  1  0
 10 19  1  0
 17 11  1  1
 11 23  1  0
 12 24  1  0
 12 28  2  0
 12 29  1  0
 13 25  2  0
 14 26  1  0
 14 30  2  0
 15 30  1  0
 16 17  1  0
 16 38  1  6
 17 18  1  0
 17 39  1  6
 19 20  2  0
 19 22  1  0
 20 21  1  0
 20 24  1  0
 23 25  1  0
 25 26  1  0
 26 27  2  0
 28 32  1  0
 29 33  2  0
 31 35  1  0
 31 36  1  0
 31 37  1  0
 32 34  2  0
 33 34  1  0
M  CHG  2   4  -1  12   1
M  END

> <chembl_id>
CHEMBL44354

> <chembl_pref_name>
CEFTAZIDIME

$$$$

     RDKit          2D

 27 30  0  0  0  0  0  0  0  0999 V2000
    1.5613    1.2904    0.0000 F   0  0  0  0  0  0  0  0  0  0  0  0
    0.1323   -1.1846    0.0000 O   0  0  0  0  0  0  0  0  0  0  0  0
   -1.2966    2.1154    0.0000 O   0  0  0  0  0  0  0  0  0  0  0  0
   -3.4400    0.8779    0.0000 O   0  0  0  0  0  0  0  0  0  0  0  0
   -2.7256    2.1154    0.0000 O   0  0  0  0  0  0  0  0  0  0  0  0
   -1.2966   -0.3596    0.0000 N   0  0  0  0  0  0  0  0  0  0  0  0
    1.5613   -0.3596    0.0000 N   0  0  0  0  0  0  0  0  0  0  0  0
    2.9902   -1.1846    0.0000 N   0  0  0  0  0  0  0  0  0  0  0  0
   -0.5822    0.0529    0.0000 C   0  0  0  0  0  0  0  0  0  0  0  0
   -0.5822    0.8779    0.0000 C   0  0  0  0  0  0  0  0  0  0  0  0
    0.1323   -0.3596    0.0000 C   0  0  0  0  0  0  0  0  0  0  0  0
    0.8468    0.0529    0.0000 C   0  0  0  0  0  0  0  0  0  0  0  0
   -1.2966    1.2904    0.0000 C   0  0  0  0  0  0  0  0  0  0  0  0
   -1.2966   -1.1846    0.0000 C   0  0  0  0  0  0  0  0  0  0  0  0
   -2.0111    0.8779    0.0000 C   0  0  0  0  0  0  0  0  0  0  0  0
    0.8468    0.8779    0.0000 C   0  0  0  0  0  0  0  0  0  0  0  0
    0.1323    1.2904    0.0000 C   0  0  0  0  0  0  0  0  0  0  0  0
   -2.0111    0.0529    0.0000 C   0  0  0  0  0  0  0  0  0  0  0  0
   -0.8841   -1.8990    0.0000 C   0  0  0  0  0  0  0  0  0  0  0  0
   -1.7091   -1.8990    0.0000 C   0  0  0  0  0  0  0  0  0  0  0  0
   -2.7256    1.2904    0.0000 C   0  0  0  0  0  0  0  0  0  0  0  0
    2.2757    0.0529    0.0000 C   0  0  0  0  0  0  0  0  0  0  0  0
    1.5613   -1.1846    0.0000 C   0  0  0  0  0  0  0  0  0  0  0  0
    2.9902   -0.3596    0.0000 C   0  0  0  0  0  0  0  0  0  0  0  0
    2.2757   -1.5971    0.0000 C   0  0  0  0  0  0  0  0  0  0  0  0
    0.8468   -1.5971    0.0000 C   0  0  0  0  0  0  0  0  0  0  0  0
    3.7047    0.0529    0.0000 C   0  0  0  0  0  0  0  0  0  0  0  0
  1 16  1  0
  2 11  1  0
  2 26  1  0
  3 13  2  0
  4 21  2  0
  5 21  1  0
  6  9  1  0
  6 14  1  0
  6 18  1  0
  7 12  1  0
  7 22  1  0
  7 23  1  0
  8 24  1  0
  8 25  1  0
  9 10  1  0
  9 11  2  0
 10 13  1  0
 10 17  2  0
 11 12  1  0
 12 16  2  0
 13 15  1  0
 14 19  1  0
 14 20  1  0
 15 18  2  0
 15 21  1  0
 16 17  1  0
 19 20  1  0
 22 24  1  0
 23 25  1  0
 24 27  1  0
M  END

> <chembl_id>
CHEMBL31

> <chembl_pref_name>
GATIFLOXACIN

$$$$

     RDKit          2D

 31 34  0  0  0  0  0  0  0  0999 V2000
    5.3375   -5.5792    0.0000 N   0  0  0  0  0  0  0  0  0  0  0  0
    5.3375   -4.8750    0.0000 C   0  0  0  0  0  0  0  0  0  0  0  0
    4.6250   -5.5792    0.0000 C   0  0  0  0  0  0  0  0  0  0  0  0
    4.6250   -4.8750    0.0000 C   0  0  0  0  0  0  0  0  0  0  0  0
    2.5792   -3.8417    0.0000 C   0  0  0  0  0  0  0  0  0  0  0  0
    2.7875   -4.5167    0.0000 C   0  0  0  0  0  0  0  0  0  0  0  0
    6.0125   -5.8042    0.0000 C   0  0  0  0  0  0  0  0  0  0  0  0
    6.0125   -4.6542    0.0000 S   0  0  0  0  0  0  0  0  0  0  0  0
    3.4042   -4.8667    0.0000 C   0  0  0  0  0  0  0  0  0  0  0  0
    1.8625   -3.8375    0.0000 N   0  0  0  0  0  0  0  0  0  0  0  0
    6.4292   -5.2375    0.0000 C   0  0  0  0  0  0  0  0  0  0  0  0
    4.0250   -4.5292    0.0000 N   0  0  0  0  0  0  0  0  0  0  0  0
    2.9292   -3.2250    0.0000 C   0  0  0  0  0  0  0  0  0  0  0  0
    1.6500   -4.5083    0.0000 O   0  0  0  0  0  0  0  0  0  0  0  0
    2.2167   -4.9417    0.0000 C   0  0  0  0  0  0  0  0  0  0  0  0
    6.0292   -6.5167    0.0000 C   0  0  0  0  0  0  0  0  0  0  0  0
    4.1417   -6.0917    0.0000 O   0  0  0  0  0  0  0  0  0  0  0  0
    3.6417   -3.2250    0.0000 C   0  0  0  0  0  0  0  0  0  0  0  0
    2.5792   -2.6167    0.0000 C   0  0  0  0  0  0  0  0  0  0  0  0
    3.4000   -5.5750    0.0000 O   0  0  0  0  0  0  0  0  0  0  0  0
    6.6542   -6.8542    0.0000 O   0  0  0  0  0  0  0  0  0  0  0  0
    5.4292   -6.8875    0.0000 O   0  0  0  0  0  0  0  0  0  0  0  0
    4.0000   -3.8417    0.0000 Cl  0  0  0  0  0  0  0  0  0  0  0  0
    1.8667   -2.6042    0.0000 Cl  0  0  0  0  0  0  0  0  0  0  0  0
    6.9542   -4.7542    0.0000 C   0  0  0  0  0  0  0  0  0  0  0  0
    6.9542   -5.7042    0.0000 C   0  0  0  0  0  0  0  0  0  0  0  0
    2.2125   -5.6375    0.0000 C   0  0  0  0  0  0  0  0  0  0  0  0
    3.6375   -2.0042    0.0000 C   0  0  0  0  0  0  0  0  0  0  0  0
    3.9875   -2.6167    0.0000 C   0  0  0  0  0  0  0  0  0  0  0  0
    2.9292   -2.0000    0.0000 C   0  0  0  0  0  0  0  0  0  0  0  0
    5.3292   -4.1667    0.0000 H   0  0  0  0  0  0  0  0  0  0  0  0
  2  1  1  0
  3  1  1  0
  4  3  1  0
  5  6  1  0
  6  9  1  0
  7  1  1  0
  8  2  1  0
  9 12  1  0
 10  5  2  0
 11  7  1  0
  4 12  1  1
 13  5  1  0
 14 15  1  0
 15  6  2  0
  7 16  1  6
 17  3  2  0
 18 13  2  0
 19 13  1  0
 20  9  2  0
 21 16  1  0
 22 16  2  0
 23 18  1  0
 24 19  1  0
 25 11  1  0
 26 11  1  0
 27 15  1  0
 28 30  1  0
 29 18  1  0
 30 19  2  0
  2 31  1  6
 11  8  1  0
  4  2  1  0
 14 10  1  0
 28 29  2  0
M  END

> <chembl_id>
CHEMBL893

> <chembl_pref_name>
DICLOXACILLIN

$$$$

     RDKit          2D

 19 20  0  0  0  0  0  0  0  0999 V2000
   -0.5292   -1.5716    0.0000 S   0  0  0  0  0  0  0  0  0  0  0  0
   -0.1167   -2.2861    0.0000 O   0  0  0  0  0  0  0  0  0  0  0  0
   -0.9417   -0.8572    0.0000 O   0  0  0  0  0  0  0  0  0  0  0  0
    1.6142   -0.3341    0.0000 O   0  0  0  0  0  0  0  0  0  0  0  0
    0.1853   -1.1591    0.0000 N   0  0  0  0  0  0  0  0  0  0  0  0
    0.8998   -2.3966    0.0000 N   0  0  0  0  0  0  0  0  0  0  0  0
    2.3287   -1.5716    0.0000 N   0  0  0  0  0  0  0  0  0  0  0  0
   -3.3871   -3.2216    0.0000 N   0  0  0  0  0  0  0  0  0  0  0  0
   -1.2436   -1.9841    0.0000 C   0  0  0  0  0  0  0  0  0  0  0  0
    0.8998   -1.5716    0.0000 C   0  0  0  0  0  0  0  0  0  0  0  0
    1.6142   -1.1591    0.0000 C   0  0  0  0  0  0  0  0  0  0  0  0
   -1.2436   -2.8091    0.0000 C   0  0  0  0  0  0  0  0  0  0  0  0
   -1.9581   -1.5716    0.0000 C   0  0  0  0  0  0  0  0  0  0  0  0
   -2.6726   -2.8091    0.0000 C   0  0  0  0  0  0  0  0  0  0  0  0
   -1.9581   -3.2216    0.0000 C   0  0  0  0  0  0  0  0  0  0  0  0
   -2.6726   -1.9841    0.0000 C   0  0  0  0  0  0  0  0  0  0  0  0
    1.6142   -2.8091    0.0000 C   0  0  0  0  0  0  0  0  0  0  0  0
    2.3287   -2.3966    0.0000 C   0  0  0  0  0  0  0  0  0  0  0  0
    0.8998    0.0784    0.0000 C   0  0  0  0  0  0  0  0  0  0  0  0
  1  2  2  0
  1  3  2  0
  1  5  1  0
  1  9  1  0
  4 11  1  0
  4 19  1  0
  5 10  1  0
  6 10  2  0
  6 17  1  0
  7 11  2  0
  7 18  1  0
  8 14  1  0
  9 12  2  0
  9 13  1  0
 10 11  1  0
 12 15  1  0
 13 16  2  0
 14 15  2  0
 14 16  1  0
 17 18  2  0
M  END

> <chembl_id>
CHEMBL1525826

> <chembl_pref_name>
SULFALENE

$$$$

     RDKit          2D

 26 29  0  0  0  0  0  0  0  0999 V2000
    6.2292   -4.1875    0.0000 C   0  0  0  0  0  0  0  0  0  0  0  0
    4.9875   -4.1875    0.0000 C   0  0  0  0  0  0  0  0  0  0  0  0
    5.6000   -5.2417    0.0000 N   0  0  0  0  0  0  0  0  0  0  0  0
    5.6000   -3.8250    0.0000 C   0  0  0  0  0  0  0  0  0  0  0  0
    4.9875   -4.9000    0.0000 C   0  0  0  0  0  0  0  0  0  0  0  0
    6.2292   -4.9000    0.0000 C   0  0  0  0  0  0  0  0  0  0  0  0
    4.3792   -3.8250    0.0000 C   0  0  0  0  0  0  0  0  0  0  0  0
    3.7417   -4.9042    0.0000 C   0  0  0  0  0  0  0  0  0  0  0  0
    3.1250   -5.2750    0.0000 N   0  0  0  0  0  0  0  0  0  0  0  0
    4.3792   -5.2417    0.0000 C   0  0  0  0  0  0  0  0  0  0  0  0
    3.7417   -4.1875    0.0000 C   0  0  0  0  0  0  0  0  0  0  0  0
    5.6000   -5.9542    0.0000 C   0  0  0  0  0  0  0  0  0  0  0  0
    6.8375   -3.8250    0.0000 C   0  0  0  0  0  0  0  0  0  0  0  0
    5.2042   -6.5667    0.0000 C   0  0  0  0  0  0  0  0  0  0  0  0
    5.9417   -6.5667    0.0000 C   0  0  0  0  0  0  0  0  0  0  0  0
    5.6000   -3.1250    0.0000 O   0  0  0  0  0  0  0  0  0  0  0  0
    2.5167   -4.9042    0.0000 C   0  0  0  0  0  0  0  0  0  0  0  0
    1.9042   -5.9667    0.0000 N   0  0  0  0  0  0  0  0  0  0  0  0
    6.8375   -3.1292    0.0000 O   0  0  0  0  0  0  0  0  0  0  0  0
    3.1542   -3.8250    0.0000 F   0  0  0  0  0  0  0  0  0  0  0  0
    1.9042   -5.3042    0.0000 C   0  0  0  0  0  0  0  0  0  0  0  0
    7.4542   -4.1875    0.0000 O   0  0  0  0  0  0  0  0  0  0  0  0
    3.1250   -5.9667    0.0000 C   0  0  0  0  0  0  0  0  0  0  0  0
    2.5167   -6.3375    0.0000 C   0  0  0  0  0  0  0  0  0  0  0  0
    4.3792   -3.1292    0.0000 C   0  0  0  0  0  0  0  0  0  0  0  0
    1.2792   -5.0042    0.0000 C   0  0  0  0  0  0  0  0  0  0  0  0
  2  4  1  0
  3  6  1  0
  4  1  1  0
  5  3  1  0
  6  1  2  0
  7  2  1  0
  8 10  2  0
  9  8  1  0
 10  5  1  0
 11  7  2  0
 12  3  1  0
 13  1  1  0
 14 12  1  0
 15 12  1  0
 16  4  2  0
 17  9  1  0
 18 24  1  0
 19 13  2  0
 20 11  1  0
 21 17  1  0
 22 13  1  0
 23  9  1  0
 24 23  1  0
 25  7  1  0
 26 21  1  0
  5  2  2  0
 15 14  1  0
  8 11  1  0
 18 21  1  0
M  END

> <chembl_id>
CHEMBL583

> <chembl_pref_name>
GREPAFLOXACIN

$$$$

     RDKit          2D

 52 56  0  0  0  0  0  0  0  0999 V2000
   -7.9143   -0.6582    0.0000 C   0  0  0  0  0  0  0  0  0  0  0  0
   -7.1564   -0.9838    0.0000 S   0  0  0  0  0  0  0  0  0  0  0  0
   -6.6124   -0.3635    0.0000 C   0  0  0  0  0  0  0  0  0  0  0  0
   -7.0342    0.3454    0.0000 C   0  0  0  0  0  0  0  0  0  0  0  0
   -7.8389    0.1633    0.0000 N   0  0  0  0  0  0  0  0  0  0  0  0
   -8.6004   -1.1165    0.0000 N   0  0  0  0  0  0  0  0  0  0  0  0
   -6.7086    1.1034    0.0000 C   0  0  0  0  0  0  0  0  0  0  0  0
   -6.8765    2.5224    0.0000 O   0  0  0  0  0  0  0  0  0  0  0  0
   -7.2022    1.7644    0.0000 N   0  0  0  0  0  0  0  0  0  0  0  0
   -5.8893    1.2003    0.0000 C   0  0  0  0  0  0  0  0  0  0  0  0
   -5.5636    1.9583    0.0000 N   0  0  0  0  0  0  0  0  0  0  0  0
   -7.4040    3.1567    0.0000 C   0  0  0  0  0  0  0  0  0  0  0  0
   -8.1942    3.1552    0.0000 C   0  0  0  0  0  0  0  0  0  0  0  0
   -7.9315    3.7910    0.0000 C   0  0  0  0  0  0  0  0  0  0  0  0
   -7.1185    3.9307    0.0000 C   0  0  0  0  0  0  0  0  0  0  0  0
   -6.3137    4.1128    0.0000 O   0  0  0  0  0  0  0  0  0  0  0  0
   -7.6460    4.5650    0.0000 O   0  0  0  0  0  0  0  0  0  0  0  0
   -5.3957    0.5393    0.0000 O   0  0  0  0  0  0  0  0  0  0  0  0
   -4.7443    2.0553    0.0000 C   0  0  0  0  0  0  0  0  0  0  0  0
   -4.7443    2.8803    0.0000 C   0  0  0  0  0  0  0  0  0  0  0  0
   -3.9193    2.0553    0.0000 C   0  0  0  0  0  0  0  0  0  0  0  0
   -5.3855    3.3995    0.0000 O   0  0  0  0  0  0  0  0  0  0  0  0
   -4.7439    1.2750    0.0000 H   0  0  0  0  0  0  0  0  0  0  0  0
   -3.9186    1.2584    0.0000 H   0  0  0  0  0  0  0  0  0  0  0  0
   -3.2048    3.2928    0.0000 C   0  0  0  0  0  0  0  0  0  0  0  0
   -3.9193    2.8803    0.0000 N   0  0  0  0  0  0  0  0  0  0  0  0
   -3.2048    1.6427    0.0000 S   0  0  0  0  0  0  0  0  0  0  0  0
   -2.4904    2.0553    0.0000 C   0  0  0  0  0  0  0  0  0  0  0  0
   -2.4904    2.8803    0.0000 C   0  0  0  0  0  0  0  0  0  0  0  0
   -3.1617    4.1167    0.0000 C   0  0  0  0  0  0  0  0  0  0  0  0
   -3.8536    4.5660    0.0000 O   0  0  0  0  0  0  0  0  0  0  0  0
   -2.4266    4.4912    0.0000 O   0  0  0  0  0  0  0  0  0  0  0  0
   -1.7759    3.2928    0.0000 C   0  0  0  0  0  0  0  0  0  0  0  0
   -1.0840    2.8434    0.0000 N   0  0  0  0  0  0  0  0  0  0  0  0
   -1.5297    2.1492    0.0000 C   0  0  0  0  0  0  0  0  0  0  0  0
   -1.0072    1.5108    0.0000 C   0  0  0  0  0  0  0  0  0  0  0  0
   -0.2385    1.8105    0.0000 C   0  0  0  0  0  0  0  0  0  0  0  0
   -0.2859    2.6341    0.0000 C   0  0  0  0  0  0  0  0  0  0  0  0
   -0.8788    3.6425    0.0000 C   0  0  0  0  0  0  0  0  0  0  0  0
   -0.0842    3.8644    0.0000 C   0  0  0  0  0  0  0  0  0  0  0  0
    0.1210    4.6635    0.0000 N   0  0  0  0  0  0  0  0  0  0  0  0
    0.9156    4.8853    0.0000 C   0  0  0  0  0  0  0  0  0  0  0  0
    1.5049    4.3080    0.0000 O   0  0  0  0  0  0  0  0  0  0  0  0
    1.1207    5.6844    0.0000 C   0  0  0  0  0  0  0  0  0  0  0  0
    0.5947    7.0130    0.0000 C   0  0  0  0  0  0  0  0  0  0  0  0
    0.4742    6.1968    0.0000 C   0  0  0  0  0  0  0  0  0  0  0  0
    1.8878    5.9881    0.0000 C   0  0  0  0  0  0  0  0  0  0  0  0
    2.0083    6.8042    0.0000 C   0  0  0  0  0  0  0  0  0  0  0  0
    1.3617    7.3167    0.0000 C   0  0  0  0  0  0  0  0  0  0  0  0
   -0.3204    5.9750    0.0000 Cl  0  0  0  0  0  0  0  0  0  0  0  0
   -0.0518    7.5255    0.0000 O   0  0  0  0  0  0  0  0  0  0  0  0
    1.4823    8.1328    0.0000 O   0  0  0  0  0  0  0  0  0  0  0  0
  1  2  1  0
  2  3  1  0
  3  4  2  0
  4  5  1  0
  1  5  2  0
  1  6  1  0
  4  7  1  0
  8  9  1  0
 10 11  1  0
  9  7  2  0
  7 10  1  0
  8 12  1  0
 12 13  1  0
 12 14  1  0
 12 15  1  0
 15 16  2  0
 15 17  1  0
 10 18  2  0
 19 11  1  6
 19 20  1  0
 21 19  1  0
 20 22  2  0
 19 23  1  1
 21 24  1  1
 25 26  1  0
 27 28  1  0
 28 29  1  0
 25 29  2  0
 26 21  1  0
 21 27  1  0
 20 26  1  0
 25 30  1  0
 30 31  2  0
 30 32  1  0
 29 33  1  0
 33 34  1  0
 35 36  1  0
 36 37  1  0
 37 38  1  0
 34 35  1  0
 34 38  1  0
 34 39  1  0
 39 40  1  0
 40 41  1  0
 41 42  1  0
 42 43  2  0
 42 44  1  0
 45 46  1  0
 47 48  2  0
 48 49  1  0
 45 49  2  0
 46 44  2  0
 44 47  1  0
 46 50  1  0
 45 51  1  0
 49 52  1  0
M  CHG  2  32  -1  34   1
M  END

> <chembl_id>
CHEMBL3989974

> <chembl_pref_name>
CEFIDEROCOL

$$$$

     RDKit          2D

 36 40  0  0  1  0  0  0  0  0999 V2000
   11.0125   -2.0208    0.0000 N   0  0  0  0  0  0  0  0  0  0  0  0
   11.0125   -1.3125    0.0000 C   0  0  0  0  0  0  0  0  0  0  0  0
   10.3000   -2.0250    0.0000 C   0  0  0  0  0  0  0  0  0  0  0  0
   10.3000   -1.3125    0.0000 C   0  0  0  0  0  0  0  0  0  0  0  0
   11.6875   -2.2375    0.0000 C   0  0  0  0  0  0  0  0  0  0  0  0
   11.6833   -1.0917    0.0000 S   0  0  0  0  0  0  0  0  0  0  0  0
   12.1042   -1.6625    0.0000 C   0  0  0  0  0  0  0  0  0  0  0  0
    9.0667   -1.3125    0.0000 C   0  0  0  0  0  0  0  0  0  0  0  0
    9.6792   -0.9542    0.0000 N   0  0  0  0  0  0  0  0  0  0  0  0
    7.8417   -1.3125    0.0000 C   0  0  0  0  0  0  0  0  0  0  0  0
    8.4542   -0.9583    0.0000 C   0  0  0  0  0  0  0  0  0  0  0  0
   11.6792   -2.9417    0.0000 C   0  0  0  0  0  0  0  0  0  0  0  0
    7.2292   -0.9583    0.0000 O   0  0  0  0  0  0  0  0  0  0  0  0
    9.8000   -2.5250    0.0000 O   0  0  0  0  0  0  0  0  0  0  0  0
    5.3917   -1.3167    0.0000 C   0  0  0  0  0  0  0  0  0  0  0  0
    9.0667   -2.0208    0.0000 O   0  0  0  0  0  0  0  0  0  0  0  0
    7.8417   -2.0208    0.0000 O   0  0  0  0  0  0  0  0  0  0  0  0
    6.6125   -1.3125    0.0000 C   0  0  0  0  0  0  0  0  0  0  0  0
   12.2917   -3.3042    0.0000 O   0  0  0  0  0  0  0  0  0  0  0  0
    6.0042   -0.9583    0.0000 C   0  0  0  0  0  0  0  0  0  0  0  0
    8.4542   -0.2500    0.0000 C   0  0  0  0  0  0  0  0  0  0  0  0
    5.3917   -2.0250    0.0000 C   0  0  0  0  0  0  0  0  0  0  0  0
   11.0625   -3.2917    0.0000 O   0  0  0  0  0  0  0  0  0  0  0  0
    6.0042   -2.3792    0.0000 C   0  0  0  0  0  0  0  0  0  0  0  0
    6.6167   -2.0250    0.0000 C   0  0  0  0  0  0  0  0  0  0  0  0
   12.7167   -1.3042    0.0000 C   0  0  0  0  0  0  0  0  0  0  0  0
   12.7167   -2.0167    0.0000 C   0  0  0  0  0  0  0  0  0  0  0  0
    4.7167   -1.0958    0.0000 C   0  0  0  0  0  0  0  0  0  0  0  0
    4.3000   -1.6667    0.0000 C   0  0  0  0  0  0  0  0  0  0  0  0
    4.7167   -2.2417    0.0000 C   0  0  0  0  0  0  0  0  0  0  0  0
    9.0708    0.1042    0.0000 C   0  0  0  0  0  0  0  0  0  0  0  0
    7.8458    0.1000    0.0000 C   0  0  0  0  0  0  0  0  0  0  0  0
    7.8417    0.8083    0.0000 C   0  0  0  0  0  0  0  0  0  0  0  0
    9.0708    0.8125    0.0000 C   0  0  0  0  0  0  0  0  0  0  0  0
    8.4583    1.1667    0.0000 C   0  0  0  0  0  0  0  0  0  0  0  0
   11.0042   -0.6042    0.0000 H   0  0  0  0  0  0  0  0  0  0  0  0
  2  1  1  0
  3  1  1  0
  4  3  1  0
  5  1  1  0
  6  2  1  0
  7  5  1  0
  8  9  1  0
  4  9  1  1
 10 11  1  0
 11  8  1  0
  5 12  1  6
 13 10  1  0
 14  3  2  0
 15 20  1  0
 16  8  2  0
 17 10  2  0
 18 13  1  0
 19 12  1  0
 20 18  2  0
 21 11  1  0
 22 15  2  0
 23 12  2  0
 24 25  2  0
 25 18  1  0
 26  7  1  0
 27  7  1  0
 28 15  1  0
 29 28  1  0
 30 22  1  0
 31 21  2  0
 32 21  1  0
 33 32  2  0
 34 31  1  0
 35 33  1  0
  2 36  1  6
  4  2  1  0
  6  7  1  0
 35 34  2  0
 24 22  1  0
 30 29  1  0
M  END

> <chembl_id>
CHEMBL1596

> <chembl_pref_name>
CARBENICILLIN INDANYL

$$$$

     RDKit          2D

 25 27  0  0  1  0  0  0  0  0999 V2000
    2.2720   -4.6360    0.0000 N   0  0  0  0  0  0  0  0  0  0  0  0
    2.2720   -5.4547    0.0000 C   0  0  0  0  0  0  0  0  0  0  0  0
    1.4436   -4.6360    0.0000 C   0  0  0  0  0  0  0  0  0  0  0  0
    1.4436   -5.4547    0.0000 C   0  0  0  0  0  0  0  0  0  0  0  0
    3.0713   -4.3744    0.0000 C   0  0  0  0  0  0  0  0  0  0  0  0
    3.0713   -5.7114    0.0000 S   0  0  0  0  0  0  0  0  0  0  0  0
    3.5460   -5.0574    0.0000 C   0  0  0  0  0  0  0  0  0  0  0  0
    3.7495   -3.8948    0.0000 C   0  0  0  0  0  0  0  0  0  0  0  0
    0.4699   -5.2658    0.0000 N   0  0  0  0  0  0  0  0  0  0  0  0
   -0.2471   -4.9170    0.0000 C   0  0  0  0  0  0  0  0  0  0  0  0
    0.9737   -3.9287    0.0000 O   0  0  0  0  0  0  0  0  0  0  0  0
    3.6671   -3.0713    0.0000 O   0  0  0  0  0  0  0  0  0  0  0  0
    4.5391   -3.9869    0.0000 O   0  0  0  0  0  0  0  0  0  0  0  0
   -0.2471   -4.2339    0.0000 O   0  0  0  0  0  0  0  0  0  0  0  0
   -1.6809   -4.8734    0.0000 O   0  0  0  0  0  0  0  0  0  0  0  0
   -0.9833   -5.3094    0.0000 C   0  0  0  0  0  0  0  0  0  0  0  0
    4.2049   -5.5515    0.0000 C   0  0  0  0  0  0  0  0  0  0  0  0
    4.2485   -4.6360    0.0000 C   0  0  0  0  0  0  0  0  0  0  0  0
   -2.3979   -5.2512    0.0000 C   0  0  0  0  0  0  0  0  0  0  0  0
   -2.4076   -6.0796    0.0000 C   0  0  0  0  0  0  0  0  0  0  0  0
   -3.1051   -4.8152    0.0000 C   0  0  0  0  0  0  0  0  0  0  0  0
   -3.1633   -6.4671    0.0000 C   0  0  0  0  0  0  0  0  0  0  0  0
   -3.8172   -5.2173    0.0000 C   0  0  0  0  0  0  0  0  0  0  0  0
   -3.8463   -6.0215    0.0000 C   0  0  0  0  0  0  0  0  0  0  0  0
    2.1172   -6.4427    0.0000 H   0  0  0  0  0  0  0  0  0  0  0  0
  2  1  1  0
  3  1  1  0
  4  3  1  0
  5  1  1  0
  6  2  1  0
  7  5  1  0
  5  8  1  1
  4  9  1  6
 10  9  1  0
 11  3  2  0
 12  8  1  0
 13  8  2  0
 14 10  2  0
 15 16  1  0
 16 10  1  0
 17  7  1  0
 18  7  1  0
 19 15  1  0
 20 19  1  0
 21 19  2  0
 22 20  2  0
 23 21  1  0
 24 23  2  0
  7  6  1  0
  4  2  1  0
 24 22  1  0
  2 25  1  1
M  END

> <chembl_id>
CHEMBL615

> <chembl_pref_name>
PENICILLIN V

$$$$

     RDKit          2D

 42 45  0  0  0  0  0  0  0  0999 V2000
   -6.1286  -11.1964    0.0000 C   0  0  0  0  0  0  0  0  0  0  0  0
   -6.8430  -11.6089    0.0000 C   0  0  0  0  0  0  0  0  0  0  0  0
   -6.8430  -12.4339    0.0000 C   0  0  0  0  0  0  0  0  0  0  0  0
   -6.1286  -12.8464    0.0000 C   0  0  0  0  0  0  0  0  0  0  0  0
   -5.4141  -12.4339    0.0000 C   0  0  0  0  0  0  0  0  0  0  0  0
   -5.4141  -11.6089    0.0000 C   0  0  0  0  0  0  0  0  0  0  0  0
   -7.5575  -11.1964    0.0000 C   0  0  0  0  0  0  0  0  0  0  0  0
   -8.2720  -11.6089    0.0000 N   0  0  0  0  0  0  0  0  0  0  0  0
   -8.9865  -11.1964    0.0000 C   0  0  0  0  0  0  0  0  0  0  0  0
   -9.7009  -11.6089    0.0000 C   0  0  0  0  0  0  0  0  0  0  0  0
  -10.4154  -11.1964    0.0000 C   0  0  0  0  0  0  0  0  0  0  0  0
  -10.4154  -12.0214    0.0000 C   0  0  0  0  0  0  0  0  0  0  0  0
   -9.4874  -12.4058    0.0000 C   0  0  0  0  0  0  0  0  0  0  0  0
   -4.6996  -11.1964    0.0000 C   0  0  0  0  0  0  0  0  0  0  0  0
   -4.6996  -12.8464    0.0000 C   0  0  0  0  0  0  0  0  0  0  0  0
   -3.9852  -12.4339    0.0000 C   0  0  0  0  0  0  0  0  0  0  0  0
   -3.9852  -11.6089    0.0000 C   0  0  0  0  0  0  0  0  0  0  0  0
   -3.2707  -11.1964    0.0000 C   0  0  0  0  0  0  0  0  0  0  0  0
   -3.2707  -12.8464    0.0000 C   0  0  0  0  0  0  0  0  0  0  0  0
   -2.5562  -12.4339    0.0000 C   0  0  0  0  0  0  0  0  0  0  0  0
   -2.5562  -11.6089    0.0000 C   0  0  0  0  0  0  0  0  0  0  0  0
   -1.8418  -11.1964    0.0000 C   0  0  0  0  0  0  0  0  0  0  0  0
   -1.8418  -12.8464    0.0000 C   0  0  0  0  0  0  0  0  0  0  0  0
   -1.1273  -12.4339    0.0000 C   0  0  0  0  0  0  0  0  0  0  0  0
   -1.1273  -11.6089    0.0000 C   0  0  0  0  0  0  0  0  0  0  0  0
   -0.4128  -11.1964    0.0000 C   0  0  0  0  0  0  0  0  0  0  0  0
   -0.4128  -10.3714    0.0000 O   0  0  0  0  0  0  0  0  0  0  0  0
    0.3016  -11.6089    0.0000 N   0  0  0  0  0  0  0  0  0  0  0  0
   -0.4128  -12.8464    0.0000 O   0  0  0  0  0  0  0  0  0  0  0  0
   -1.8418  -10.3714    0.0000 O   0  0  0  0  0  0  0  0  0  0  0  0
   -1.2584  -13.4298    0.0000 N   0  0  0  0  0  0  0  0  0  0  0  0
   -0.4334  -13.4298    0.0000 C   0  0  0  0  0  0  0  0  0  0  0  0
   -1.6709  -14.1443    0.0000 C   0  0  0  0  0  0  0  0  0  0  0  0
   -2.5562  -10.7839    0.0000 O   0  0  0  0  0  0  0  0  0  0  0  0
   -3.2707  -10.3714    0.0000 O   0  0  0  0  0  0  0  0  0  0  0  0
   -4.6996  -10.3714    0.0000 O   0  0  0  0  0  0  0  0  0  0  0  0
   -6.1286  -10.3714    0.0000 O   0  0  0  0  0  0  0  0  0  0  0  0
   -6.1286  -13.6714    0.0000 N   0  0  0  0  0  0  0  0  0  0  0  0
   -5.4141  -14.0839    0.0000 C   0  0  0  0  0  0  0  0  0  0  0  0
   -6.8430  -14.0839    0.0000 C   0  0  0  0  0  0  0  0  0  0  0  0
   -2.5562  -13.4339    0.0000 H   0  0  0  0  0  0  0  0  0  0  0  0
   -3.9852  -13.4339    0.0000 H   0  0  0  0  0  0  0  0  0  0  0  0
  1  2  1  0
  2  3  2  0
  3  4  1  0
  4  5  2  0
  1  6  2  0
  2  7  1  0
  7  8  1  0
  8  9  1  0
  9 10  1  0
 10 11  1  0
 10 12  1  0
 10 13  1  0
 14  6  1  0
  6  5  1  0
  5 15  1  0
 15 16  1  0
 14 17  1  0
 18 17  2  0
 17 16  1  0
 16 19  1  0
 19 20  1  0
 18 21  1  0
 22 21  1  0
 21 20  1  0
 20 23  1  0
 23 24  1  0
 24 25  2  0
 22 25  1  0
 25 26  1  0
 26 27  2  0
 26 28  1  0
 24 29  1  0
 22 30  2  0
 23 31  1  1
 31 32  1  0
 31 33  1  0
 21 34  1  1
 18 35  1  0
 14 36  2  0
  1 37  1  0
 38  4  1  0
 38 39  1  0
 38 40  1  0
 20 41  1  1
 16 42  1  1
M  END

> <chembl_id>
CHEMBL1689772

> <chembl_pref_name>
OMADACYCLINE

$$$$
